/*---------------------------------------------------------------------------*\
| =========                 |                                                 |
| \\      /  F ield         | OpenFOAM: The Open Source CFD Toolbox           |
|  \\    /   O peration     | Version:  v2012                                 |
|   \\  /    A nd           | Website:  www.openfoam.com                      |
|    \\/     M anipulation  |                                                 |
\*---------------------------------------------------------------------------*/
Build  : 76270c07a0-20210621 OPENFOAM=2012
Arch   : "LSB;label=32;scalar=64"
Exec   : solids4Foam
Date   : Dec 05 2022
Time   : 23:17:31
Host   : Philips-Mac-mini.local
PID    : 34054
I/O    : uncollated
Case   : /Users/philipc/OpenFOAM/philipc-v2012/solids4foam/tutorials/fluidSolidInteraction/3dTube/dt8e-4
nProcs : 1
trapFpe: Floating point exception trapping enabled (FOAM_SIGFPE).
fileModificationChecking : Monitoring run-time modified files using timeStampMaster (fileModificationSkew 5, maxFileModificationPolls 20)
allowSystemOperations : Allowing user-supplied system call operations

// * * * * * * * * * * * * * * * * * * * * * * * * * * * * * * * * * * * * * //
Create time

--> FOAM Warning : 
    From static Foam::IOstreamOption::compressionType Foam::IOstreamOption::compressionEnum(const Foam::word &, const Foam::IOstreamOption::compressionType)
    in file db/IOstreams/IOstreams/IOstreamOption.C at line 115
    Unknown compression specifier 'uncompressed', using compression off
/*---------------------------------------------------------------------------*\
|    For further information on the solids4Foam toolbox implementations,      |
|    please see the following publications:                                   |
|                                                                             |
|    P. Cardiff, A Karac, P. De Jaeger, H. Jasak, J. Nagy, A. Ivankovic,      |
|    Z. Tukovic: An open-source finite volume toolbox for solid mechanics and |
|    fluid-solid interaction simulations. arXiv:1808.10736v2, 2018, available |
|    at https://arxiv.org/abs/1808.10736.                                     |
|                                                                             |
|    Z. Tukovic, A. Karac, P. Cardiff, H. Jasak, A. Ivankovic: OpenFOAM       |
|    finite volume solver for fluid-solid interaction.  Transactions of       |
|    Famena, 42 (3), pp. 1-31, 2018, 10.21278/TOF.42301.                      |
\*---------------------------------------------------------------------------*/

Selecting physicsModel fluidSolidInterface
Selecting fluidSolidInterface Aitken

Selecting fluidModel sonicLiquidFluid
Selecting dynamicFvMesh dynamicMotionSolverFvMesh
Selecting motion solver: velocityLaplacian
Selecting motion diffusion: quadratic
Selecting motion diffusion: inverseDistance
Selecting patchDistMethod meshWave
g field not found in constant directory: initialising to zero
No finite volume options present

Resetting the dimensions of phi
Constructing face momentum rhoUf
Selecting solidModel linearGeometry
Selecting dynamicFvMesh staticFvMesh
Symmetry boundary condition with non-orthogonal correction
Symmetry boundary condition with non-orthogonal correction
Creating fixedDisplacement boundary condition
Creating fixedDisplacement boundary condition
Creating solidTraction boundary condition
Creating solidTraction boundary condition
    under-relaxation method: fixed
Creating the mechanicalModel
Selecting mechanical law linearElastic
additionalMeshCorrection: false
--> FOAM Warning : 
    From const Foam::HashTable<Foam::labelList> &Foam::polyBoundaryMesh::groupPatchIDs() const
    in file meshes/polyMesh/polyBoundaryMesh/polyBoundaryMesh.C at line 510
    Removed patchGroup 'wall' which clashes with patch 2 of the same name.
Selecting interfaceToInterfaceMapping AMI
Creating displacement function object
    region = solid
    distance from specified point is 3.46945e-18
Creating solidForce function object
--> FOAM Warning : 
    From void Foam::timeControl::read(const Foam::dictionary &)
    in file db/functionObjects/timeControl/timeControl.C at line 127
    Reading "/Users/philipc/OpenFOAM/philipc-v2012/solids4foam/tutorials/fluidSolidInteraction/3dTube/dt8e-4/system/controlDict.functions.forces" at line 66 to 77
    Using deprecated 'outputControl'
    Please use 'writeControl' with 'writeInterval'
    This outputControl is deemed to be 54 months old.

--> FOAM Warning : 
    From void *Foam::dlLibraryTable::openLibrary(const Foam::fileName &, bool)
    in file db/dynamicLibrary/dlLibraryTable/dlLibraryTable.C at line 188
    Could not load "libforces.so"
dlopen(libforces.dylib, 9): image not found
--> FOAM Warning : 
Unknown function type forces

Valid function types :

24
(
cantileverAnalyticalSolution
hotCylinderAnalyticalSolution
hydrostaticPressure
patchProbes
plateHoleAnalyticalSolution
principalStresses
probes
psiReactionThermoMoleFractions
rhoReactionThermoMoleFractions
sets
solidDisplacements
solidForces
solidForcesDisplacements
solidKineticEnergy
solidPointDisplacement
solidPointStress
solidPointTemperature
solidPotentialEnergy
solidStresses
solidTorque
solidTractions
stressTriaxiality
surfaces
volumetricStrain
)



    From static Foam::autoPtr<Foam::functionObject> Foam::functionObject::New(const Foam::word &, const Foam::Time &, const Foam::dictionary &)
    in file db/functionObjects/functionObject/functionObject.C at line 122.
--> loading function object 'forces'

Time = 0.0008

Setting traction on solid interfaces
Interpolating face values using AMI
Create AMI zone-to-zone interpolator
AMI: Creating addressing and weights between 1600 source faces and 1600 target faces
AMI: Patch source sum(weights) min:1 max:1.00009 average:1.00005
AMI: Patch target sum(weights) min:0.999867 max:0.999964 average:0.999917
interface-to-interface face error: 9.94108e-07
Total force on fluid interface 0: (0 0 0)
Total force on solid interface 0: (0 0 0)

Evolving solid solver
Solving the momentum equation for DD
setCellDisplacements: reading cellDisplacements
    Corr, res, relRes, matRes, iters
    Both residuals have converged
    2, 0, 0, 0, 0

Interpolating point values using AMI
zoneA point orientation (< 0), max: -0.999196, min: -1, nIncorrectPoints: 0/1701
Interpolating point values using AMI
FSI relative residual1 norm for interface 0: 0
FSI residual2 norm for interface 0: 0

Time = 0.0008, iteration: 1
Current fsi under-relaxation factor (fixed): 0.4
Maximal accumulated displacement of interface 0: 0
GAMG:  Solving for cellMotionUx, Initial residual = 0, Final residual = 0, No Iterations 1
GAMG:  Solving for cellMotionUy, Initial residual = 0, Final residual = 0, No Iterations 1
GAMG:  Solving for cellMotionUz, Initial residual = 0, Final residual = 0, No Iterations 1
Evolving fluid model: sonicLiquidFluid
volume continuity errors : sum local = 0, global = 0

PIMPLE: no residual control data found. Calculations will employ 2 corrector loops

GAMG:  Solving for pcorr, Initial residual = 0, Final residual = 0, No Iterations 1
GAMG:  Solving for pcorr, Initial residual = 0, Final residual = 0, No Iterations 1
Region: fluid Courant Number mean: 0 max: 0
PIMPLE: iteration 1
diagonal:  Solving for rho, Initial residual = 0, Final residual = 0, No Iterations 0
DILUPBiCG:  Solving for Ux, Initial residual = 0.998447, Final residual = 1.21446e-10, No Iterations 3
DILUPBiCG:  Solving for Uy, Initial residual = 0.998569, Final residual = 2.29766e-10, No Iterations 3
DILUPBiCG:  Solving for Uz, Initial residual = 1, Final residual = 7.80053e-11, No Iterations 3
GAMG:  Solving for p, Initial residual = 1, Final residual = 9.62431e-07, No Iterations 16
diagonal:  Solving for rho, Initial residual = 0, Final residual = 0, No Iterations 0
time step continuity errors : sum local = 1.46074e-06, global = 1.6196e-08, cumulative = 1.6196e-08
GAMG:  Solving for p, Initial residual = 0.0208948, Final residual = 5.25057e-07, No Iterations 15
diagonal:  Solving for rho, Initial residual = 0, Final residual = 0, No Iterations 0
time step continuity errors : sum local = 3.75974e-08, global = 1.75242e-08, cumulative = 3.37202e-08
PIMPLE: iteration 2
diagonal:  Solving for rho, Initial residual = 0, Final residual = 0, No Iterations 0
DILUPBiCG:  Solving for Ux, Initial residual = 0.367721, Final residual = 1.23613e-11, No Iterations 4
DILUPBiCG:  Solving for Uy, Initial residual = 0.367717, Final residual = 1.29887e-11, No Iterations 4
DILUPBiCG:  Solving for Uz, Initial residual = 0.414691, Final residual = 8.70036e-10, No Iterations 3
GAMG:  Solving for p, Initial residual = 0.00287229, Final residual = 8.19904e-07, No Iterations 12
diagonal:  Solving for rho, Initial residual = 0, Final residual = 0, No Iterations 0
time step continuity errors : sum local = 7.9521e-08, global = 4.6112e-08, cumulative = 7.98322e-08
GAMG:  Solving for p, Initial residual = 0.000297871, Final residual = 7.03279e-07, No Iterations 7
diagonal:  Solving for rho, Initial residual = 0, Final residual = 0, No Iterations 0
time step continuity errors : sum local = 6.95154e-08, global = 1.18894e-09, cumulative = 8.10212e-08

Density: min 1000 max 1001.33
Density variation: 1.3333 ref: 10
Pressure: min 0 max 1333.3
Velocity: min 0 max 0.0442736

Setting traction on solid interfaces
Interpolating face values using AMI
Total force on fluid interface 0: (-0.127443 -0.127443 -0.000164917)
Total force on solid interface 0: (0.12746 0.12746 0.000164938)

Evolving solid solver
Solving the momentum equation for DD
    Corr, res, relRes, matRes, iters
    100, 0.000148422, 9.9212e-05, 0, 10
    200, 3.49584e-06, 1.90905e-06, 0, 8
    300, 1.08665e-07, 7.69878e-08, 0, 7
    400, 7.60713e-09, 7.17137e-09, 0, 3
    The relative residual has converged
    442, 2.84994e-09, 7.49003e-10, 0, 1

Interpolating point values using AMI
Interpolating point values using AMI
FSI relative residual1 norm for interface 0: 1
FSI residual2 norm for interface 0: 1

Time = 0.0008, iteration: 2
Current fsi under-relaxation factor (fixed): 0.4
Maximal accumulated displacement of interface 0: 0.333006
GAMG:  Solving for cellMotionUx, Initial residual = 1, Final residual = 1.62027e-17, No Iterations 1
GAMG:  Solving for cellMotionUy, Initial residual = 1, Final residual = 1.8236e-17, No Iterations 1
GAMG:  Solving for cellMotionUz, Initial residual = 1, Final residual = 1.59518e-17, No Iterations 1
Evolving fluid model: sonicLiquidFluid
volume continuity errors : sum local = 3.05105e-15, global = 1.74409e-19
GAMG:  Solving for pcorr, Initial residual = 1, Final residual = 6.16107e-07, No Iterations 21
GAMG:  Solving for pcorr, Initial residual = 0.00421595, Final residual = 2.98286e-07, No Iterations 7
Region: fluid Courant Number mean: 0.0314147 max: 0.753966
PIMPLE: iteration 1
diagonal:  Solving for rho, Initial residual = 0, Final residual = 0, No Iterations 0
DILUPBiCG:  Solving for Ux, Initial residual = 0.542909, Final residual = 2.94418e-10, No Iterations 4
DILUPBiCG:  Solving for Uy, Initial residual = 0.543318, Final residual = 3.01969e-10, No Iterations 4
DILUPBiCG:  Solving for Uz, Initial residual = 0.0107568, Final residual = 5.36137e-10, No Iterations 3
GAMG:  Solving for p, Initial residual = 0.111553, Final residual = 6.19549e-07, No Iterations 18
diagonal:  Solving for rho, Initial residual = 0, Final residual = 0, No Iterations 0
time step continuity errors : sum local = 3.56613e-08, global = -1.58272e-08, cumulative = 6.51939e-08
GAMG:  Solving for p, Initial residual = 0.0159884, Final residual = 8.55276e-07, No Iterations 13
diagonal:  Solving for rho, Initial residual = 0, Final residual = 0, No Iterations 0
time step continuity errors : sum local = 4.0017e-07, global = 5.74038e-08, cumulative = 1.22598e-07
PIMPLE: iteration 2
diagonal:  Solving for rho, Initial residual = 0, Final residual = 0, No Iterations 0
DILUPBiCG:  Solving for Ux, Initial residual = 0.263276, Final residual = 4.19788e-10, No Iterations 4
DILUPBiCG:  Solving for Uy, Initial residual = 0.26327, Final residual = 4.17118e-10, No Iterations 4
DILUPBiCG:  Solving for Uz, Initial residual = 0.213316, Final residual = 8.63135e-10, No Iterations 4
GAMG:  Solving for p, Initial residual = 0.0209114, Final residual = 9.22118e-07, No Iterations 14
diagonal:  Solving for rho, Initial residual = 0, Final residual = 0, No Iterations 0
time step continuity errors : sum local = 7.5487e-07, global = 8.64186e-08, cumulative = 2.09016e-07
GAMG:  Solving for p, Initial residual = 0.0102847, Final residual = 9.8176e-07, No Iterations 12
diagonal:  Solving for rho, Initial residual = 0, Final residual = 0, No Iterations 0
time step continuity errors : sum local = 3.50453e-07, global = 1.02391e-07, cumulative = 3.11407e-07

Density: min 998.394 max 1001.33
Density variation: 2.93885 ref: 10
Pressure: min -1605.55 max 1333.3
Velocity: min 0.000181933 max 0.266584

Setting traction on solid interfaces
Interpolating face values using AMI
Total force on fluid interface 0: (0.220827 0.220827 -0.00019316)
Total force on solid interface 0: (-0.220857 -0.220857 0.000193185)

Evolving solid solver
Solving the momentum equation for DD
    Corr, res, relRes, matRes, iters
    100, 5.15366e-05, 3.29609e-05, 0, 9
    200, 1.33997e-06, 1.59143e-06, 0, 18
    300, 7.26827e-08, 7.15076e-08, 0, 6
    400, 1.00157e-08, 8.14035e-09, 0, 3
    The relative residual has converged
    458, 3.23196e-09, 6.73148e-10, 0, 1

Interpolating point values using AMI
Interpolating point values using AMI
FSI relative residual1 norm for interface 0: 1
FSI residual2 norm for interface 0: 1.14438

Time = 0.0008, iteration: 3
Current fsi under-relaxation factor (Aitken) of wall: 0.116238
Maximal accumulated displacement of interface 0: 0.156259
GAMG:  Solving for cellMotionUx, Initial residual = 0.750627, Final residual = 5.55813e-18, No Iterations 1
GAMG:  Solving for cellMotionUy, Initial residual = 0.75248, Final residual = 5.19773e-18, No Iterations 1
GAMG:  Solving for cellMotionUz, Initial residual = 0.849826, Final residual = 4.61471e-18, No Iterations 1
Evolving fluid model: sonicLiquidFluid
volume continuity errors : sum local = 3.05697e-15, global = 1.3535e-18
GAMG:  Solving for pcorr, Initial residual = 1, Final residual = 6.34695e-07, No Iterations 24
GAMG:  Solving for pcorr, Initial residual = 0.0385126, Final residual = 9.25671e-07, No Iterations 11
Region: fluid Courant Number mean: 0.0097654 max: 0.296684
PIMPLE: iteration 1
diagonal:  Solving for rho, Initial residual = 0, Final residual = 0, No Iterations 0
DILUPBiCG:  Solving for Ux, Initial residual = 0.00616112, Final residual = 9.94942e-09, No Iterations 2
DILUPBiCG:  Solving for Uy, Initial residual = 0.00616405, Final residual = 9.97895e-09, No Iterations 2
DILUPBiCG:  Solving for Uz, Initial residual = 0.00551383, Final residual = 6.22411e-11, No Iterations 3
GAMG:  Solving for p, Initial residual = 0.0312745, Final residual = 6.72781e-07, No Iterations 17
diagonal:  Solving for rho, Initial residual = 0, Final residual = 0, No Iterations 0
time step continuity errors : sum local = 4.39495e-07, global = -5.1184e-08, cumulative = 2.60223e-07
GAMG:  Solving for p, Initial residual = 0.0214113, Final residual = 9.89158e-07, No Iterations 12
diagonal:  Solving for rho, Initial residual = 0, Final residual = 0, No Iterations 0
time step continuity errors : sum local = 1.95138e-07, global = 3.18889e-08, cumulative = 2.92112e-07
PIMPLE: iteration 2
diagonal:  Solving for rho, Initial residual = 0, Final residual = 0, No Iterations 0
DILUPBiCG:  Solving for Ux, Initial residual = 0.22819, Final residual = 2.23247e-10, No Iterations 4
DILUPBiCG:  Solving for Uy, Initial residual = 0.228182, Final residual = 2.28095e-10, No Iterations 4
DILUPBiCG:  Solving for Uz, Initial residual = 0.43366, Final residual = 3.70842e-10, No Iterations 4
GAMG:  Solving for p, Initial residual = 0.0277439, Final residual = 9.07098e-07, No Iterations 16
diagonal:  Solving for rho, Initial residual = 0, Final residual = 0, No Iterations 0
time step continuity errors : sum local = 1.24093e-07, global = -3.69367e-08, cumulative = 2.55175e-07
GAMG:  Solving for p, Initial residual = 0.00875428, Final residual = 7.58189e-07, No Iterations 12
diagonal:  Solving for rho, Initial residual = 0, Final residual = 0, No Iterations 0
time step continuity errors : sum local = 1.13025e-07, global = -3.71625e-08, cumulative = 2.18013e-07

Density: min 1000 max 1001.33
Density variation: 1.3333 ref: 10
Pressure: min 0 max 1333.3
Velocity: min 9.92472e-05 max 0.173728

Setting traction on solid interfaces
Interpolating face values using AMI
Total force on fluid interface 0: (-0.0702545 -0.0702545 -0.000189094)
Total force on solid interface 0: (0.070264 0.070264 0.000189118)

Evolving solid solver
Solving the momentum equation for DD
    Corr, res, relRes, matRes, iters
    100, 7.45095e-05, 3.0056e-05, 0, 9
    200, 2.10816e-06, 8.96929e-07, 0, 7
    300, 1.60965e-07, 1.19165e-07, 0, 7
    400, 2.36977e-08, 1.90199e-08, 0, 7
    500, 3.80928e-09, 2.91272e-09, 0, 3
    The relative residual has converged
    510, 3.02877e-09, 6.18888e-10, 0, 1

Interpolating point values using AMI
Interpolating point values using AMI
FSI relative residual1 norm for interface 0: 0.176098
FSI residual2 norm for interface 0: 0.201523

Time = 0.0008, iteration: 4
Current fsi under-relaxation factor (Aitken) of wall: 0.10143
Maximal accumulated displacement of interface 0: 0.0263202
GAMG:  Solving for cellMotionUx, Initial residual = 0.69225, Final residual = 1.26915e-18, No Iterations 1
GAMG:  Solving for cellMotionUy, Initial residual = 0.696089, Final residual = 1.23976e-18, No Iterations 1
GAMG:  Solving for cellMotionUz, Initial residual = 0.923379, Final residual = 2.03943e-18, No Iterations 1
Evolving fluid model: sonicLiquidFluid
volume continuity errors : sum local = 3.04576e-15, global = -3.09261e-18
GAMG:  Solving for pcorr, Initial residual = 1, Final residual = 9.34261e-07, No Iterations 22
GAMG:  Solving for pcorr, Initial residual = 0.00654062, Final residual = 6.45007e-07, No Iterations 8
Region: fluid Courant Number mean: 0.0109426 max: 0.437073
PIMPLE: iteration 1
diagonal:  Solving for rho, Initial residual = 0, Final residual = 0, No Iterations 0
DILUPBiCG:  Solving for Ux, Initial residual = 0.00326964, Final residual = 5.34038e-11, No Iterations 3
DILUPBiCG:  Solving for Uy, Initial residual = 0.00326966, Final residual = 5.39766e-11, No Iterations 3
DILUPBiCG:  Solving for Uz, Initial residual = 0.00282854, Final residual = 1.35993e-10, No Iterations 3
GAMG:  Solving for p, Initial residual = 0.0197056, Final residual = 6.78101e-07, No Iterations 16
diagonal:  Solving for rho, Initial residual = 0, Final residual = 0, No Iterations 0
time step continuity errors : sum local = 1.68144e-07, global = -1.67613e-08, cumulative = 2.01252e-07
GAMG:  Solving for p, Initial residual = 0.0043793, Final residual = 8.53478e-07, No Iterations 11
diagonal:  Solving for rho, Initial residual = 0, Final residual = 0, No Iterations 0
time step continuity errors : sum local = 1.85686e-07, global = 1.96962e-08, cumulative = 2.20948e-07
PIMPLE: iteration 2
diagonal:  Solving for rho, Initial residual = 0, Final residual = 0, No Iterations 0
DILUPBiCG:  Solving for Ux, Initial residual = 0.0443991, Final residual = 1.75663e-11, No Iterations 4
DILUPBiCG:  Solving for Uy, Initial residual = 0.0444012, Final residual = 1.7534e-11, No Iterations 4
DILUPBiCG:  Solving for Uz, Initial residual = 0.057681, Final residual = 1.64571e-10, No Iterations 4
GAMG:  Solving for p, Initial residual = 0.0124145, Final residual = 8.08311e-07, No Iterations 14
diagonal:  Solving for rho, Initial residual = 0, Final residual = 0, No Iterations 0
time step continuity errors : sum local = 1.44412e-07, global = 2.14913e-08, cumulative = 2.42439e-07
GAMG:  Solving for p, Initial residual = 0.00169702, Final residual = 7.74306e-07, No Iterations 10
diagonal:  Solving for rho, Initial residual = 0, Final residual = 0, No Iterations 0
time step continuity errors : sum local = 1.47873e-07, global = 2.99617e-08, cumulative = 2.72401e-07

Density: min 999.975 max 1001.33
Density variation: 1.35854 ref: 10
Pressure: min -25.24 max 1333.3
Velocity: min 2.73223e-05 max 0.186507

Setting traction on solid interfaces
Interpolating face values using AMI
Total force on fluid interface 0: (-0.030966 -0.030966 -0.000188649)
Total force on solid interface 0: (0.0309702 0.0309702 0.000188673)

Evolving solid solver
Solving the momentum equation for DD
    Corr, res, relRes, matRes, iters
    100, 1.5804e-05, 5.75043e-06, 0, 9
    200, 8.55051e-07, 2.05117e-07, 0, 6
    300, 1.21427e-07, 2.94913e-08, 0, 6
    400, 1.95687e-08, 4.82685e-09, 0, 7
    The relative residual has converged
    488, 4.15174e-09, 9.83773e-10, 0, 3

Interpolating point values using AMI
Interpolating point values using AMI
FSI relative residual1 norm for interface 0: 0.0659745
FSI residual2 norm for interface 0: 0.0754999

Time = 0.0008, iteration: 5
Current fsi under-relaxation factor (Aitken) of wall: 0.106636
Maximal accumulated displacement of interface 0: 0.0160799
GAMG:  Solving for cellMotionUx, Initial residual = 0.6165, Final residual = 4.57897e-18, No Iterations 1
GAMG:  Solving for cellMotionUy, Initial residual = 0.621569, Final residual = 4.26052e-18, No Iterations 1
GAMG:  Solving for cellMotionUz, Initial residual = 0.500845, Final residual = 7.82321e-18, No Iterations 1
Evolving fluid model: sonicLiquidFluid
volume continuity errors : sum local = 3.02887e-15, global = 3.91421e-18
GAMG:  Solving for pcorr, Initial residual = 1, Final residual = 9.5272e-07, No Iterations 21
GAMG:  Solving for pcorr, Initial residual = 0.00698896, Final residual = 9.19023e-07, No Iterations 7
Region: fluid Courant Number mean: 0.0100599 max: 0.429373
PIMPLE: iteration 1
diagonal:  Solving for rho, Initial residual = 0, Final residual = 0, No Iterations 0
DILUPBiCG:  Solving for Ux, Initial residual = 0.00113684, Final residual = 8.43621e-11, No Iterations 3
DILUPBiCG:  Solving for Uy, Initial residual = 0.00113753, Final residual = 8.1641e-11, No Iterations 3
DILUPBiCG:  Solving for Uz, Initial residual = 0.000866409, Final residual = 3.96278e-09, No Iterations 2
GAMG:  Solving for p, Initial residual = 0.00951683, Final residual = 6.69788e-07, No Iterations 14
diagonal:  Solving for rho, Initial residual = 0, Final residual = 0, No Iterations 0
time step continuity errors : sum local = 1.8905e-07, global = -2.18272e-08, cumulative = 2.50574e-07
GAMG:  Solving for p, Initial residual = 0.00123768, Final residual = 7.12082e-07, No Iterations 8
diagonal:  Solving for rho, Initial residual = 0, Final residual = 0, No Iterations 0
time step continuity errors : sum local = 1.91769e-07, global = 2.59059e-08, cumulative = 2.7648e-07
PIMPLE: iteration 2
diagonal:  Solving for rho, Initial residual = 0, Final residual = 0, No Iterations 0
DILUPBiCG:  Solving for Ux, Initial residual = 0.014143, Final residual = 1.68019e-11, No Iterations 4
DILUPBiCG:  Solving for Uy, Initial residual = 0.0141433, Final residual = 1.69354e-11, No Iterations 4
DILUPBiCG:  Solving for Uz, Initial residual = 0.0111661, Final residual = 5.98835e-12, No Iterations 4
GAMG:  Solving for p, Initial residual = 0.00855398, Final residual = 7.01468e-07, No Iterations 10
diagonal:  Solving for rho, Initial residual = 0, Final residual = 0, No Iterations 0
time step continuity errors : sum local = 1.37529e-07, global = 3.30703e-08, cumulative = 3.0955e-07
GAMG:  Solving for p, Initial residual = 0.000729745, Final residual = 6.22211e-07, No Iterations 7
diagonal:  Solving for rho, Initial residual = 0, Final residual = 0, No Iterations 0
time step continuity errors : sum local = 1.16263e-07, global = -2.93678e-08, cumulative = 2.80182e-07

Density: min 999.999 max 1001.33
Density variation: 1.33477 ref: 10
Pressure: min -1.46949 max 1333.3
Velocity: min 1.46496e-05 max 0.188244

Setting traction on solid interfaces
Interpolating face values using AMI
Total force on fluid interface 0: (-0.0313413 -0.0313413 -0.000188531)
Total force on solid interface 0: (0.0313455 0.0313455 0.000188556)

Evolving solid solver
Solving the momentum equation for DD
    Corr, res, relRes, matRes, iters
    100, 5.02531e-06, 2.35545e-06, 0, 13
    200, 1.96237e-07, 1.48194e-07, 0, 12
    300, 2.12985e-08, 1.3593e-08, 0, 11
    400, 3.37431e-09, 1.39469e-09, 0, 3
    The relative residual has converged
    403, 3.04984e-09, 3.76842e-10, 0, 1

Interpolating point values using AMI
Interpolating point values using AMI
FSI relative residual1 norm for interface 0: 0.0493564
FSI residual2 norm for interface 0: 0.0564825

Time = 0.0008, iteration: 6
Current fsi under-relaxation factor (Aitken) of wall: 0.312984
Maximal accumulated displacement of interface 0: 0.0420604
GAMG:  Solving for cellMotionUx, Initial residual = 0.346937, Final residual = 1.26275e-17, No Iterations 1
GAMG:  Solving for cellMotionUy, Initial residual = 0.346784, Final residual = 1.102e-17, No Iterations 1
GAMG:  Solving for cellMotionUz, Initial residual = 0.335433, Final residual = 9.75092e-18, No Iterations 1
Evolving fluid model: sonicLiquidFluid
volume continuity errors : sum local = 3.00816e-15, global = 5.04526e-18
GAMG:  Solving for pcorr, Initial residual = 1, Final residual = 7.0106e-07, No Iterations 20
GAMG:  Solving for pcorr, Initial residual = 0.00685197, Final residual = 7.56535e-07, No Iterations 7
Region: fluid Courant Number mean: 0.00970616 max: 0.447031
PIMPLE: iteration 1
diagonal:  Solving for rho, Initial residual = 0, Final residual = 0, No Iterations 0
DILUPBiCG:  Solving for Ux, Initial residual = 0.00113771, Final residual = 3.42822e-11, No Iterations 3
DILUPBiCG:  Solving for Uy, Initial residual = 0.00113716, Final residual = 3.43755e-11, No Iterations 3
DILUPBiCG:  Solving for Uz, Initial residual = 0.000557221, Final residual = 2.27959e-09, No Iterations 2
GAMG:  Solving for p, Initial residual = 0.0129321, Final residual = 9.16415e-07, No Iterations 12
diagonal:  Solving for rho, Initial residual = 0, Final residual = 0, No Iterations 0
time step continuity errors : sum local = 1.94213e-07, global = -3.45005e-08, cumulative = 2.45682e-07
GAMG:  Solving for p, Initial residual = 0.00245243, Final residual = 5.6725e-07, No Iterations 7
diagonal:  Solving for rho, Initial residual = 0, Final residual = 0, No Iterations 0
time step continuity errors : sum local = 1.88984e-07, global = 1.79897e-08, cumulative = 2.63671e-07
PIMPLE: iteration 2
diagonal:  Solving for rho, Initial residual = 0, Final residual = 0, No Iterations 0
DILUPBiCG:  Solving for Ux, Initial residual = 0.0290199, Final residual = 3.42263e-11, No Iterations 4
DILUPBiCG:  Solving for Uy, Initial residual = 0.0290205, Final residual = 3.44884e-11, No Iterations 4
DILUPBiCG:  Solving for Uz, Initial residual = 0.0221602, Final residual = 2.26547e-11, No Iterations 4
GAMG:  Solving for p, Initial residual = 0.00927057, Final residual = 6.24066e-07, No Iterations 11
diagonal:  Solving for rho, Initial residual = 0, Final residual = 0, No Iterations 0
time step continuity errors : sum local = 1.21409e-07, global = -2.51927e-08, cumulative = 2.38479e-07
GAMG:  Solving for p, Initial residual = 0.0011611, Final residual = 4.71075e-07, No Iterations 8
diagonal:  Solving for rho, Initial residual = 0, Final residual = 0, No Iterations 0
time step continuity errors : sum local = 1.18317e-07, global = 3.7782e-10, cumulative = 2.38856e-07

Density: min 999.992 max 1001.33
Density variation: 1.34111 ref: 10
Pressure: min -7.81048 max 1333.3
Velocity: min 2.30348e-05 max 0.194882

Setting traction on solid interfaces
Interpolating face values using AMI
Total force on fluid interface 0: (-0.0308696 -0.0308696 -0.000188819)
Total force on solid interface 0: (0.0308738 0.0308738 0.000188843)

Evolving solid solver
Solving the momentum equation for DD
    Corr, res, relRes, matRes, iters
    100, 1.1257e-05, 1.20054e-05, 0, 23
    200, 3.61155e-07, 1.56405e-07, 0, 6
    300, 4.16619e-08, 1.99813e-08, 0, 7
    400, 6.58576e-09, 2.81201e-09, 0, 3
    The relative residual has converged
    454, 2.21387e-09, 2.52518e-10, 0, 1

Interpolating point values using AMI
Interpolating point values using AMI
FSI relative residual1 norm for interface 0: 0.0253955
FSI residual2 norm for interface 0: 0.0290621

Time = 0.0008, iteration: 7
Current fsi under-relaxation factor (Aitken) of wall: 0.374489
Maximal accumulated displacement of interface 0: 0.0324638
GAMG:  Solving for cellMotionUx, Initial residual = 0.559776, Final residual = 3.91307e-18, No Iterations 1
GAMG:  Solving for cellMotionUy, Initial residual = 0.560018, Final residual = 4.45399e-18, No Iterations 1
GAMG:  Solving for cellMotionUz, Initial residual = 0.54725, Final residual = 3.74721e-18, No Iterations 1
Evolving fluid model: sonicLiquidFluid
volume continuity errors : sum local = 3.0513e-15, global = -3.66934e-18
GAMG:  Solving for pcorr, Initial residual = 1, Final residual = 5.009e-07, No Iterations 20
GAMG:  Solving for pcorr, Initial residual = 0.00711427, Final residual = 7.3679e-07, No Iterations 7
Region: fluid Courant Number mean: 0.00988784 max: 0.47006
PIMPLE: iteration 1
diagonal:  Solving for rho, Initial residual = 0, Final residual = 0, No Iterations 0
DILUPBiCG:  Solving for Ux, Initial residual = 0.00114511, Final residual = 3.7787e-11, No Iterations 3
DILUPBiCG:  Solving for Uy, Initial residual = 0.00114528, Final residual = 3.79111e-11, No Iterations 3
DILUPBiCG:  Solving for Uz, Initial residual = 0.000493169, Final residual = 1.66369e-09, No Iterations 2
GAMG:  Solving for p, Initial residual = 0.0108083, Final residual = 9.18629e-07, No Iterations 11
diagonal:  Solving for rho, Initial residual = 0, Final residual = 0, No Iterations 0
time step continuity errors : sum local = 2.0361e-07, global = 2.81397e-08, cumulative = 2.66996e-07
GAMG:  Solving for p, Initial residual = 0.00127293, Final residual = 7.89103e-07, No Iterations 9
diagonal:  Solving for rho, Initial residual = 0, Final residual = 0, No Iterations 0
time step continuity errors : sum local = 2.20371e-07, global = 1.50243e-08, cumulative = 2.8202e-07
PIMPLE: iteration 2
diagonal:  Solving for rho, Initial residual = 0, Final residual = 0, No Iterations 0
DILUPBiCG:  Solving for Ux, Initial residual = 0.0138682, Final residual = 8.76504e-11, No Iterations 4
DILUPBiCG:  Solving for Uy, Initial residual = 0.0138683, Final residual = 7.9518e-11, No Iterations 4
DILUPBiCG:  Solving for Uz, Initial residual = 0.00870996, Final residual = 6.0321e-11, No Iterations 4
GAMG:  Solving for p, Initial residual = 0.00918088, Final residual = 9.97213e-07, No Iterations 8
diagonal:  Solving for rho, Initial residual = 0, Final residual = 0, No Iterations 0
time step continuity errors : sum local = 1.84286e-07, global = 3.86459e-08, cumulative = 3.20666e-07
GAMG:  Solving for p, Initial residual = 0.000867674, Final residual = 7.67802e-07, No Iterations 8
diagonal:  Solving for rho, Initial residual = 0, Final residual = 0, No Iterations 0
time step continuity errors : sum local = 1.52354e-07, global = 4.17781e-08, cumulative = 3.62444e-07

Density: min 1000 max 1001.33
Density variation: 1.3333 ref: 10
Pressure: min 0 max 1333.3
Velocity: min 1.629e-05 max 0.203378

Setting traction on solid interfaces
Interpolating face values using AMI
Total force on fluid interface 0: (-0.0309326 -0.0309326 -0.000190337)
Total force on solid interface 0: (0.0309367 0.0309367 0.000190362)

Evolving solid solver
Solving the momentum equation for DD
    Corr, res, relRes, matRes, iters
    100, 7.85487e-06, 4.31041e-06, 0, 10
    200, 2.06239e-07, 8.84627e-08, 0, 7
    300, 1.58591e-08, 4.58689e-09, 0, 6
    The relative residual has converged
    380, 3.30835e-09, 2.717e-10, 0, 1

Interpolating point values using AMI
Interpolating point values using AMI
FSI relative residual1 norm for interface 0: 0.0129899
FSI residual2 norm for interface 0: 0.0148654

Time = 0.0008, iteration: 8
Current fsi under-relaxation factor (Aitken) of wall: 0.563315
Maximal accumulated displacement of interface 0: 0.0247238
GAMG:  Solving for cellMotionUx, Initial residual = 0.415304, Final residual = 5.91565e-18, No Iterations 1
GAMG:  Solving for cellMotionUy, Initial residual = 0.41534, Final residual = 6.90612e-18, No Iterations 1
GAMG:  Solving for cellMotionUz, Initial residual = 0.388403, Final residual = 6.05652e-18, No Iterations 1
Evolving fluid model: sonicLiquidFluid
volume continuity errors : sum local = 3.03949e-15, global = 1.19705e-18
GAMG:  Solving for pcorr, Initial residual = 1, Final residual = 8.74621e-07, No Iterations 20
GAMG:  Solving for pcorr, Initial residual = 0.00719461, Final residual = 8.56169e-07, No Iterations 7
Region: fluid Courant Number mean: 0.00993963 max: 0.483938
PIMPLE: iteration 1
diagonal:  Solving for rho, Initial residual = 0, Final residual = 0, No Iterations 0
DILUPBiCG:  Solving for Ux, Initial residual = 0.00104726, Final residual = 5.98726e-11, No Iterations 3
DILUPBiCG:  Solving for Uy, Initial residual = 0.00104758, Final residual = 5.96907e-11, No Iterations 3
DILUPBiCG:  Solving for Uz, Initial residual = 0.000611069, Final residual = 2.63423e-09, No Iterations 2
GAMG:  Solving for p, Initial residual = 0.00963006, Final residual = 8.42408e-07, No Iterations 9
diagonal:  Solving for rho, Initial residual = 0, Final residual = 0, No Iterations 0
time step continuity errors : sum local = 2.18561e-07, global = 1.10633e-08, cumulative = 3.73508e-07
GAMG:  Solving for p, Initial residual = 0.00102409, Final residual = 7.65213e-07, No Iterations 8
diagonal:  Solving for rho, Initial residual = 0, Final residual = 0, No Iterations 0
time step continuity errors : sum local = 2.04896e-07, global = -1.63544e-08, cumulative = 3.57153e-07
PIMPLE: iteration 2
diagonal:  Solving for rho, Initial residual = 0, Final residual = 0, No Iterations 0
DILUPBiCG:  Solving for Ux, Initial residual = 0.0108839, Final residual = 1.4192e-10, No Iterations 4
DILUPBiCG:  Solving for Uy, Initial residual = 0.0108839, Final residual = 2.1747e-10, No Iterations 4
DILUPBiCG:  Solving for Uz, Initial residual = 0.00695864, Final residual = 5.04486e-11, No Iterations 4
GAMG:  Solving for p, Initial residual = 0.00902784, Final residual = 6.0141e-07, No Iterations 9
diagonal:  Solving for rho, Initial residual = 0, Final residual = 0, No Iterations 0
time step continuity errors : sum local = 1.43396e-07, global = 2.55743e-08, cumulative = 3.82727e-07
GAMG:  Solving for p, Initial residual = 0.000754809, Final residual = 8.82415e-07, No Iterations 7
diagonal:  Solving for rho, Initial residual = 0, Final residual = 0, No Iterations 0
time step continuity errors : sum local = 1.51555e-07, global = -4.48834e-08, cumulative = 3.37844e-07

Density: min 999.992 max 1001.33
Density variation: 1.34127 ref: 10
Pressure: min -7.97053 max 1333.3
Velocity: min 6.97706e-06 max 0.208747

Setting traction on solid interfaces
Interpolating face values using AMI
Total force on fluid interface 0: (-0.0294179 -0.0294179 -0.000190833)
Total force on solid interface 0: (0.0294218 0.0294218 0.000190858)

Evolving solid solver
Solving the momentum equation for DD
    Corr, res, relRes, matRes, iters
    100, 6.16322e-06, 3.14329e-06, 0, 9
    200, 1.6903e-07, 9.20516e-08, 0, 7
    300, 1.6748e-08, 8.06833e-09, 0, 7
    400, 2.46285e-09, 1.65436e-09, 0, 3
    The relative residual has converged
    409, 2.13231e-09, 2.76863e-10, 0, 1

Interpolating point values using AMI
Interpolating point values using AMI
FSI relative residual1 norm for interface 0: 0.00696046
FSI residual2 norm for interface 0: 0.00796542

Time = 0.0008, iteration: 9
Current fsi under-relaxation factor (Aitken) of wall: 0.503535
Maximal accumulated displacement of interface 0: 0.00759289
GAMG:  Solving for cellMotionUx, Initial residual = 0.714483, Final residual = 5.37485e-18, No Iterations 1
GAMG:  Solving for cellMotionUy, Initial residual = 0.714704, Final residual = 5.83608e-18, No Iterations 1
GAMG:  Solving for cellMotionUz, Initial residual = 0.7265, Final residual = 9.09426e-18, No Iterations 1
Evolving fluid model: sonicLiquidFluid
volume continuity errors : sum local = 3.07563e-15, global = -9.15551e-19
GAMG:  Solving for pcorr, Initial residual = 1, Final residual = 6.55044e-07, No Iterations 21
GAMG:  Solving for pcorr, Initial residual = 0.00761313, Final residual = 9.91846e-07, No Iterations 7
Region: fluid Courant Number mean: 0.00972523 max: 0.484115
PIMPLE: iteration 1
diagonal:  Solving for rho, Initial residual = 0, Final residual = 0, No Iterations 0
DILUPBiCG:  Solving for Ux, Initial residual = 0.00110648, Final residual = 8.98462e-11, No Iterations 3
DILUPBiCG:  Solving for Uy, Initial residual = 0.00110725, Final residual = 8.96286e-11, No Iterations 3
DILUPBiCG:  Solving for Uz, Initial residual = 0.000718015, Final residual = 2.94747e-09, No Iterations 2
GAMG:  Solving for p, Initial residual = 0.00990544, Final residual = 9.31233e-07, No Iterations 11
diagonal:  Solving for rho, Initial residual = 0, Final residual = 0, No Iterations 0
time step continuity errors : sum local = 2.26857e-07, global = -2.74461e-08, cumulative = 3.10398e-07
GAMG:  Solving for p, Initial residual = 0.000825191, Final residual = 5.66319e-07, No Iterations 7
diagonal:  Solving for rho, Initial residual = 0, Final residual = 0, No Iterations 0
time step continuity errors : sum local = 2.15355e-07, global = -1.50234e-08, cumulative = 2.95375e-07
PIMPLE: iteration 2
diagonal:  Solving for rho, Initial residual = 0, Final residual = 0, No Iterations 0
DILUPBiCG:  Solving for Ux, Initial residual = 0.00891527, Final residual = 8.25216e-10, No Iterations 4
DILUPBiCG:  Solving for Uy, Initial residual = 0.00891559, Final residual = 1.26047e-10, No Iterations 4
DILUPBiCG:  Solving for Uz, Initial residual = 0.00883416, Final residual = 9.53326e-10, No Iterations 3
GAMG:  Solving for p, Initial residual = 0.00901343, Final residual = 6.87884e-07, No Iterations 10
diagonal:  Solving for rho, Initial residual = 0, Final residual = 0, No Iterations 0
time step continuity errors : sum local = 1.67466e-07, global = 2.81106e-08, cumulative = 3.23485e-07
GAMG:  Solving for p, Initial residual = 0.000703488, Final residual = 5.56944e-07, No Iterations 8
diagonal:  Solving for rho, Initial residual = 0, Final residual = 0, No Iterations 0
time step continuity errors : sum local = 1.38335e-07, global = 1.72005e-08, cumulative = 3.40686e-07

Density: min 1000 max 1001.33
Density variation: 1.3333 ref: 10
Pressure: min 0 max 1333.3
Velocity: min 1.39839e-05 max 0.209563

Setting traction on solid interfaces
Interpolating face values using AMI
Total force on fluid interface 0: (-0.034932 -0.034932 -0.000191324)
Total force on solid interface 0: (0.0349367 0.0349367 0.000191349)

Evolving solid solver
Solving the momentum equation for DD
    Corr, res, relRes, matRes, iters
    100, 3.41016e-06, 9.47641e-07, 0, 8
    200, 1.16717e-07, 3.26137e-08, 0, 7
    300, 1.33936e-08, 5.11659e-09, 0, 6
    The relative residual has converged
    378, 3.32076e-09, 3.00653e-10, 0, 1

Interpolating point values using AMI
Interpolating point values using AMI
FSI relative residual1 norm for interface 0: 0.0178703
FSI residual2 norm for interface 0: 0.0204504

Time = 0.0008, iteration: 10
Current fsi under-relaxation factor (Aitken) of wall: 0.124589
Maximal accumulated displacement of interface 0: 0.00308857
GAMG:  Solving for cellMotionUx, Initial residual = 0.772892, Final residual = 6.34062e-18, No Iterations 1
GAMG:  Solving for cellMotionUy, Initial residual = 0.774834, Final residual = 5.67651e-18, No Iterations 1
GAMG:  Solving for cellMotionUz, Initial residual = 0.867273, Final residual = 1.82918e-18, No Iterations 1
Evolving fluid model: sonicLiquidFluid
volume continuity errors : sum local = 3.01587e-15, global = 8.40533e-20
GAMG:  Solving for pcorr, Initial residual = 1, Final residual = 7.91362e-07, No Iterations 21
GAMG:  Solving for pcorr, Initial residual = 0.00717864, Final residual = 7.33185e-07, No Iterations 7
Region: fluid Courant Number mean: 0.0100769 max: 0.491625
PIMPLE: iteration 1
diagonal:  Solving for rho, Initial residual = 0, Final residual = 0, No Iterations 0
DILUPBiCG:  Solving for Ux, Initial residual = 0.000975121, Final residual = 6.20689e-11, No Iterations 3
DILUPBiCG:  Solving for Uy, Initial residual = 0.000975664, Final residual = 6.19733e-11, No Iterations 3
DILUPBiCG:  Solving for Uz, Initial residual = 0.000648514, Final residual = 4.65138e-09, No Iterations 2
GAMG:  Solving for p, Initial residual = 0.00978705, Final residual = 9.27032e-07, No Iterations 11
diagonal:  Solving for rho, Initial residual = 0, Final residual = 0, No Iterations 0
time step continuity errors : sum local = 2.36233e-07, global = 2.48093e-08, cumulative = 3.65495e-07
GAMG:  Solving for p, Initial residual = 0.00080136, Final residual = 4.4608e-07, No Iterations 7
diagonal:  Solving for rho, Initial residual = 0, Final residual = 0, No Iterations 0
time step continuity errors : sum local = 2.05217e-07, global = 5.2934e-09, cumulative = 3.70788e-07
PIMPLE: iteration 2
diagonal:  Solving for rho, Initial residual = 0, Final residual = 0, No Iterations 0
DILUPBiCG:  Solving for Ux, Initial residual = 0.00848933, Final residual = 1.33526e-11, No Iterations 4
DILUPBiCG:  Solving for Uy, Initial residual = 0.00848951, Final residual = 1.35507e-11, No Iterations 4
DILUPBiCG:  Solving for Uz, Initial residual = 0.0090661, Final residual = 4.56458e-11, No Iterations 4
GAMG:  Solving for p, Initial residual = 0.00916308, Final residual = 6.23549e-07, No Iterations 9
diagonal:  Solving for rho, Initial residual = 0, Final residual = 0, No Iterations 0
time step continuity errors : sum local = 1.55873e-07, global = 1.71137e-08, cumulative = 3.87902e-07
GAMG:  Solving for p, Initial residual = 0.000707717, Final residual = 4.56524e-07, No Iterations 7
diagonal:  Solving for rho, Initial residual = 0, Final residual = 0, No Iterations 0
time step continuity errors : sum local = 1.43289e-07, global = -1.2323e-08, cumulative = 3.75579e-07

Density: min 999.999 max 1001.33
Density variation: 1.3342 ref: 10
Pressure: min -0.903256 max 1333.3
Velocity: min 3.19219e-06 max 0.211273

Setting traction on solid interfaces
Interpolating face values using AMI
Total force on fluid interface 0: (-0.0294173 -0.0294173 -0.000191296)
Total force on solid interface 0: (0.0294213 0.0294213 0.000191321)

Evolving solid solver
Solving the momentum equation for DD
    Corr, res, relRes, matRes, iters
    100, 2.053e-06, 7.51484e-07, 0, 10
    200, 6.26427e-08, 1.82131e-08, 0, 9
    300, 5.27261e-09, 1.81639e-09, 0, 3
    The relative residual has converged
    323, 3.38027e-09, 9.47157e-10, 0, 3

Interpolating point values using AMI
Interpolating point values using AMI
FSI relative residual1 norm for interface 0: 0.00480634
FSI residual2 norm for interface 0: 0.00550028

Time = 0.0008, iteration: 11
Current fsi under-relaxation factor (Aitken) of wall: 0.101624
Maximal accumulated displacement of interface 0: 0.000683692
GAMG:  Solving for cellMotionUx, Initial residual = 0.718762, Final residual = 2.70444e-18, No Iterations 1
GAMG:  Solving for cellMotionUy, Initial residual = 0.722086, Final residual = 2.55025e-18, No Iterations 1
GAMG:  Solving for cellMotionUz, Initial residual = 0.946838, Final residual = 3.98248e-18, No Iterations 1
Evolving fluid model: sonicLiquidFluid
volume continuity errors : sum local = 3.03984e-15, global = -2.21517e-18
GAMG:  Solving for pcorr, Initial residual = 1, Final residual = 7.63551e-07, No Iterations 21
GAMG:  Solving for pcorr, Initial residual = 0.00732039, Final residual = 8.77565e-07, No Iterations 7
Region: fluid Courant Number mean: 0.00992165 max: 0.48872
PIMPLE: iteration 1
diagonal:  Solving for rho, Initial residual = 0, Final residual = 0, No Iterations 0
DILUPBiCG:  Solving for Ux, Initial residual = 0.00103774, Final residual = 6.7867e-11, No Iterations 3
DILUPBiCG:  Solving for Uy, Initial residual = 0.00103792, Final residual = 6.78363e-11, No Iterations 3
DILUPBiCG:  Solving for Uz, Initial residual = 0.000724425, Final residual = 3.22087e-09, No Iterations 2
GAMG:  Solving for p, Initial residual = 0.00838921, Final residual = 5.39976e-07, No Iterations 9
diagonal:  Solving for rho, Initial residual = 0, Final residual = 0, No Iterations 0
time step continuity errors : sum local = 2.17344e-07, global = 1.10726e-08, cumulative = 3.86652e-07
GAMG:  Solving for p, Initial residual = 0.000374282, Final residual = 5.84049e-07, No Iterations 5
diagonal:  Solving for rho, Initial residual = 0, Final residual = 0, No Iterations 0
time step continuity errors : sum local = 2.11003e-07, global = -1.3743e-08, cumulative = 3.72909e-07
PIMPLE: iteration 2
diagonal:  Solving for rho, Initial residual = 0, Final residual = 0, No Iterations 0
DILUPBiCG:  Solving for Ux, Initial residual = 0.00379918, Final residual = 1.38536e-11, No Iterations 4
DILUPBiCG:  Solving for Uy, Initial residual = 0.00379927, Final residual = 1.39608e-11, No Iterations 4
DILUPBiCG:  Solving for Uz, Initial residual = 0.00121032, Final residual = 7.9882e-10, No Iterations 3
GAMG:  Solving for p, Initial residual = 0.00860357, Final residual = 6.39236e-07, No Iterations 7
diagonal:  Solving for rho, Initial residual = 0, Final residual = 0, No Iterations 0
time step continuity errors : sum local = 1.48283e-07, global = -2.58418e-08, cumulative = 3.47067e-07
GAMG:  Solving for p, Initial residual = 0.000556492, Final residual = 3.95453e-07, No Iterations 5
diagonal:  Solving for rho, Initial residual = 0, Final residual = 0, No Iterations 0
time step continuity errors : sum local = 1.29083e-07, global = 5.74016e-09, cumulative = 3.52807e-07

Density: min 1000 max 1001.33
Density variation: 1.3333 ref: 10
Pressure: min 0 max 1333.3
Velocity: min 1.79818e-05 max 0.21097

Setting traction on solid interfaces
Interpolating face values using AMI
Total force on fluid interface 0: (-0.030496 -0.030496 -0.000191272)
Total force on solid interface 0: (0.0305001 0.0305001 0.000191297)

Evolving solid solver
Solving the momentum equation for DD
    Corr, res, relRes, matRes, iters
    100, 4.37705e-07, 1.62992e-07, 0, 11
    200, 1.38729e-08, 4.37458e-09, 0, 8
    The relative residual has converged
    255, 3.29585e-09, 8.43163e-10, 0, 3

Interpolating point values using AMI
Interpolating point values using AMI
FSI relative residual1 norm for interface 0: 0.00166879
FSI residual2 norm for interface 0: 0.00190973

Time = 0.0008, iteration: 12
Current fsi under-relaxation factor (Aitken) of wall: 0.10673
Maximal accumulated displacement of interface 0: 0.000490731
GAMG:  Solving for cellMotionUx, Initial residual = 0.577529, Final residual = 3.43109e-18, No Iterations 1
GAMG:  Solving for cellMotionUy, Initial residual = 0.582252, Final residual = 3.63534e-18, No Iterations 1
GAMG:  Solving for cellMotionUz, Initial residual = 0.539086, Final residual = 5.44267e-18, No Iterations 1
Evolving fluid model: sonicLiquidFluid
volume continuity errors : sum local = 3.04787e-15, global = -1.06712e-18
GAMG:  Solving for pcorr, Initial residual = 1, Final residual = 7.61782e-07, No Iterations 21
GAMG:  Solving for pcorr, Initial residual = 0.00729778, Final residual = 8.73286e-07, No Iterations 7
Region: fluid Courant Number mean: 0.00993336 max: 0.489216
PIMPLE: iteration 1
diagonal:  Solving for rho, Initial residual = 0, Final residual = 0, No Iterations 0
DILUPBiCG:  Solving for Ux, Initial residual = 0.00103422, Final residual = 6.79266e-11, No Iterations 3
DILUPBiCG:  Solving for Uy, Initial residual = 0.00103428, Final residual = 6.78874e-11, No Iterations 3
DILUPBiCG:  Solving for Uz, Initial residual = 0.000698251, Final residual = 5.70323e-09, No Iterations 2
GAMG:  Solving for p, Initial residual = 0.0085008, Final residual = 4.56828e-07, No Iterations 6
diagonal:  Solving for rho, Initial residual = 0, Final residual = 0, No Iterations 0
time step continuity errors : sum local = 1.9822e-07, global = -1.85982e-08, cumulative = 3.34209e-07
GAMG:  Solving for p, Initial residual = 0.000343096, Final residual = 5.66377e-07, No Iterations 4
diagonal:  Solving for rho, Initial residual = 0, Final residual = 0, No Iterations 0
time step continuity errors : sum local = 2.12308e-07, global = 1.55605e-08, cumulative = 3.49769e-07
PIMPLE: iteration 2
diagonal:  Solving for rho, Initial residual = 0, Final residual = 0, No Iterations 0
DILUPBiCG:  Solving for Ux, Initial residual = 0.00372633, Final residual = 1.3131e-11, No Iterations 4
DILUPBiCG:  Solving for Uy, Initial residual = 0.00372631, Final residual = 1.31961e-11, No Iterations 4
DILUPBiCG:  Solving for Uz, Initial residual = 0.000953931, Final residual = 3.8015e-12, No Iterations 4
GAMG:  Solving for p, Initial residual = 0.00863062, Final residual = 8.06918e-07, No Iterations 7
diagonal:  Solving for rho, Initial residual = 0, Final residual = 0, No Iterations 0
time step continuity errors : sum local = 1.49214e-07, global = -3.54558e-08, cumulative = 3.14313e-07
GAMG:  Solving for p, Initial residual = 0.000560867, Final residual = 5.21864e-07, No Iterations 5
diagonal:  Solving for rho, Initial residual = 0, Final residual = 0, No Iterations 0
time step continuity errors : sum local = 1.41028e-07, global = 1.56202e-08, cumulative = 3.29934e-07

Density: min 1000 max 1001.33
Density variation: 1.3333 ref: 10
Pressure: min 0 max 1333.3
Velocity: min 1.83619e-05 max 0.211017

Setting traction on solid interfaces
Interpolating face values using AMI
Total force on fluid interface 0: (-0.0304794 -0.0304794 -0.000191261)
Total force on solid interface 0: (0.0304835 0.0304835 0.000191286)

Evolving solid solver
Solving the momentum equation for DD
    Corr, res, relRes, matRes, iters
    100, 1.71086e-07, 6.81016e-08, 0, 8
    200, 6.03265e-09, 2.48883e-09, 0, 3
    The relative residual has converged
    225, 2.99128e-09, 2.81617e-10, 0, 1

Interpolating point values using AMI
Interpolating point values using AMI
FSI relative residual1 norm for interface 0: 0.00126122
FSI residual2 norm for interface 0: 0.00144332

Time = 0.0008, iteration: 13
Current fsi under-relaxation factor (Aitken) of wall: 0.305502
Maximal accumulated displacement of interface 0: 0.00125567
GAMG:  Solving for cellMotionUx, Initial residual = 0.314968, Final residual = 1.16231e-17, No Iterations 1
GAMG:  Solving for cellMotionUy, Initial residual = 0.314998, Final residual = 1.03003e-17, No Iterations 1
GAMG:  Solving for cellMotionUz, Initial residual = 0.329649, Final residual = 1.11952e-17, No Iterations 1
Evolving fluid model: sonicLiquidFluid
volume continuity errors : sum local = 3.03954e-15, global = -5.11597e-19
GAMG:  Solving for pcorr, Initial residual = 1, Final residual = 8.55706e-07, No Iterations 20
GAMG:  Solving for pcorr, Initial residual = 0.00730082, Final residual = 8.69323e-07, No Iterations 7
Region: fluid Courant Number mean: 0.00992598 max: 0.489642
PIMPLE: iteration 1
diagonal:  Solving for rho, Initial residual = 0, Final residual = 0, No Iterations 0
DILUPBiCG:  Solving for Ux, Initial residual = 0.00102811, Final residual = 6.87852e-11, No Iterations 3
DILUPBiCG:  Solving for Uy, Initial residual = 0.0010281, Final residual = 6.87753e-11, No Iterations 3
DILUPBiCG:  Solving for Uz, Initial residual = 0.000696103, Final residual = 6.78184e-09, No Iterations 2
GAMG:  Solving for p, Initial residual = 0.00851823, Final residual = 5.14171e-07, No Iterations 8
diagonal:  Solving for rho, Initial residual = 0, Final residual = 0, No Iterations 0
time step continuity errors : sum local = 2.09312e-07, global = -1.90462e-08, cumulative = 3.10887e-07
GAMG:  Solving for p, Initial residual = 0.000347911, Final residual = 6.82395e-07, No Iterations 4
diagonal:  Solving for rho, Initial residual = 0, Final residual = 0, No Iterations 0
time step continuity errors : sum local = 2.1494e-07, global = 1.21937e-08, cumulative = 3.23081e-07
PIMPLE: iteration 2
diagonal:  Solving for rho, Initial residual = 0, Final residual = 0, No Iterations 0
DILUPBiCG:  Solving for Ux, Initial residual = 0.00367632, Final residual = 1.1593e-11, No Iterations 4
DILUPBiCG:  Solving for Uy, Initial residual = 0.00367633, Final residual = 1.16448e-11, No Iterations 4
DILUPBiCG:  Solving for Uz, Initial residual = 0.00102626, Final residual = 4.48576e-12, No Iterations 4
GAMG:  Solving for p, Initial residual = 0.00863895, Final residual = 8.09701e-07, No Iterations 6
diagonal:  Solving for rho, Initial residual = 0, Final residual = 0, No Iterations 0
time step continuity errors : sum local = 1.70129e-07, global = 3.2628e-08, cumulative = 3.55709e-07
GAMG:  Solving for p, Initial residual = 0.00056187, Final residual = 5.14279e-07, No Iterations 5
diagonal:  Solving for rho, Initial residual = 0, Final residual = 0, No Iterations 0
time step continuity errors : sum local = 1.38055e-07, global = 1.43463e-08, cumulative = 3.70055e-07

Density: min 1000 max 1001.33
Density variation: 1.3333 ref: 10
Pressure: min 0 max 1333.3
Velocity: min 1.88493e-05 max 0.211175

Setting traction on solid interfaces
Interpolating face values using AMI
Total force on fluid interface 0: (-0.0304803 -0.0304803 -0.000191252)
Total force on solid interface 0: (0.0304845 0.0304844 0.000191277)

Evolving solid solver
Solving the momentum equation for DD
    Corr, res, relRes, matRes, iters
    100, 3.78962e-07, 1.65016e-07, 0, 13
    200, 1.30159e-08, 5.79426e-09, 0, 7
    The relative residual has converged
    253, 3.26497e-09, 3.53455e-10, 0, 1

Interpolating point values using AMI
Interpolating point values using AMI
FSI relative residual1 norm for interface 0: 0.000721075
FSI residual2 norm for interface 0: 0.000825184

Time = 0.0008, iteration: 14
Current fsi under-relaxation factor (Aitken) of wall: 0.367271
Maximal accumulated displacement of interface 0: 0.00103967
GAMG:  Solving for cellMotionUx, Initial residual = 0.563404, Final residual = 3.30311e-18, No Iterations 1
GAMG:  Solving for cellMotionUy, Initial residual = 0.563273, Final residual = 6.58773e-18, No Iterations 1
GAMG:  Solving for cellMotionUz, Initial residual = 0.552706, Final residual = 7.09912e-18, No Iterations 1
Evolving fluid model: sonicLiquidFluid
volume continuity errors : sum local = 3.04865e-15, global = -2.59021e-19
GAMG:  Solving for pcorr, Initial residual = 1, Final residual = 8.55546e-07, No Iterations 20
GAMG:  Solving for pcorr, Initial residual = 0.00730677, Final residual = 8.68185e-07, No Iterations 7
Region: fluid Courant Number mean: 0.00993216 max: 0.490309
PIMPLE: iteration 1
diagonal:  Solving for rho, Initial residual = 0, Final residual = 0, No Iterations 0
DILUPBiCG:  Solving for Ux, Initial residual = 0.00102519, Final residual = 6.83889e-11, No Iterations 3
DILUPBiCG:  Solving for Uy, Initial residual = 0.00102517, Final residual = 6.83688e-11, No Iterations 3
DILUPBiCG:  Solving for Uz, Initial residual = 0.000694275, Final residual = 6.75131e-09, No Iterations 2
GAMG:  Solving for p, Initial residual = 0.008537, Final residual = 6.21715e-07, No Iterations 7
diagonal:  Solving for rho, Initial residual = 0, Final residual = 0, No Iterations 0
time step continuity errors : sum local = 2.14604e-07, global = 1.02149e-08, cumulative = 3.8027e-07
GAMG:  Solving for p, Initial residual = 0.000347326, Final residual = 6.71144e-07, No Iterations 4
diagonal:  Solving for rho, Initial residual = 0, Final residual = 0, No Iterations 0
time step continuity errors : sum local = 2.12779e-07, global = -9.48566e-09, cumulative = 3.70785e-07
PIMPLE: iteration 2
diagonal:  Solving for rho, Initial residual = 0, Final residual = 0, No Iterations 0
DILUPBiCG:  Solving for Ux, Initial residual = 0.00375903, Final residual = 1.19601e-11, No Iterations 4
DILUPBiCG:  Solving for Uy, Initial residual = 0.0037589, Final residual = 1.20066e-11, No Iterations 4
DILUPBiCG:  Solving for Uz, Initial residual = 0.00103975, Final residual = 4.85711e-12, No Iterations 4
GAMG:  Solving for p, Initial residual = 0.00864528, Final residual = 8.50265e-07, No Iterations 7
diagonal:  Solving for rho, Initial residual = 0, Final residual = 0, No Iterations 0
time step continuity errors : sum local = 1.496e-07, global = -3.94966e-08, cumulative = 3.31288e-07
GAMG:  Solving for p, Initial residual = 0.000563825, Final residual = 9.47036e-07, No Iterations 4
diagonal:  Solving for rho, Initial residual = 0, Final residual = 0, No Iterations 0
time step continuity errors : sum local = 1.61494e-07, global = 1.48133e-08, cumulative = 3.46101e-07

Density: min 1000 max 1001.33
Density variation: 1.3333 ref: 10
Pressure: min 0 max 1333.3
Velocity: min 1.88395e-05 max 0.211413

Setting traction on solid interfaces
Interpolating face values using AMI
Total force on fluid interface 0: (-0.0304643 -0.0304643 -0.000191282)
Total force on solid interface 0: (0.0304685 0.0304685 0.000191307)

Evolving solid solver
Solving the momentum equation for DD
    Corr, res, relRes, matRes, iters
    100, 2.11364e-07, 1.0213e-07, 0, 9
    200, 6.04331e-09, 3.13086e-09, 0, 3
    The relative residual has converged
    231, 2.04871e-09, 4.15399e-10, 0, 1

Interpolating point values using AMI
Interpolating point values using AMI
FSI relative residual1 norm for interface 0: 0.000422362
FSI residual2 norm for interface 0: 0.000483343

Time = 0.0008, iteration: 15
Current fsi under-relaxation factor (Aitken) of wall: 0.665576
Maximal accumulated displacement of interface 0: 0.00108903
GAMG:  Solving for cellMotionUx, Initial residual = 0.31934, Final residual = 5.40458e-18, No Iterations 1
GAMG:  Solving for cellMotionUy, Initial residual = 0.319313, Final residual = 5.5172e-18, No Iterations 1
GAMG:  Solving for cellMotionUz, Initial residual = 0.27164, Final residual = 7.09056e-18, No Iterations 1
Evolving fluid model: sonicLiquidFluid
volume continuity errors : sum local = 3.0491e-15, global = -6.43551e-19
GAMG:  Solving for pcorr, Initial residual = 1, Final residual = 8.55939e-07, No Iterations 20
GAMG:  Solving for pcorr, Initial residual = 0.00731406, Final residual = 8.6693e-07, No Iterations 7
Region: fluid Courant Number mean: 0.00992854 max: 0.49076
PIMPLE: iteration 1
diagonal:  Solving for rho, Initial residual = 0, Final residual = 0, No Iterations 0
DILUPBiCG:  Solving for Ux, Initial residual = 0.00102662, Final residual = 6.88308e-11, No Iterations 3
DILUPBiCG:  Solving for Uy, Initial residual = 0.00102662, Final residual = 6.88148e-11, No Iterations 3
DILUPBiCG:  Solving for Uz, Initial residual = 0.000697216, Final residual = 7.13267e-09, No Iterations 2
GAMG:  Solving for p, Initial residual = 0.00851275, Final residual = 5.3491e-07, No Iterations 6
diagonal:  Solving for rho, Initial residual = 0, Final residual = 0, No Iterations 0
time step continuity errors : sum local = 1.98503e-07, global = -2.00963e-08, cumulative = 3.26005e-07
GAMG:  Solving for p, Initial residual = 0.000337277, Final residual = 6.6524e-07, No Iterations 4
diagonal:  Solving for rho, Initial residual = 0, Final residual = 0, No Iterations 0
time step continuity errors : sum local = 2.19859e-07, global = 1.67738e-08, cumulative = 3.42779e-07
PIMPLE: iteration 2
diagonal:  Solving for rho, Initial residual = 0, Final residual = 0, No Iterations 0
DILUPBiCG:  Solving for Ux, Initial residual = 0.00362392, Final residual = 1.19862e-11, No Iterations 4
DILUPBiCG:  Solving for Uy, Initial residual = 0.00362402, Final residual = 1.20279e-11, No Iterations 4
DILUPBiCG:  Solving for Uz, Initial residual = 0.0008405, Final residual = 4.21209e-12, No Iterations 4
GAMG:  Solving for p, Initial residual = 0.00864255, Final residual = 9.55549e-07, No Iterations 7
diagonal:  Solving for rho, Initial residual = 0, Final residual = 0, No Iterations 0
time step continuity errors : sum local = 1.578e-07, global = -4.26046e-08, cumulative = 3.00174e-07
GAMG:  Solving for p, Initial residual = 0.000560918, Final residual = 4.6305e-07, No Iterations 5
diagonal:  Solving for rho, Initial residual = 0, Final residual = 0, No Iterations 0
time step continuity errors : sum local = 1.39764e-07, global = 8.12076e-09, cumulative = 3.08295e-07

Density: min 1000 max 1001.33
Density variation: 1.3333 ref: 10
Pressure: min 0 max 1333.3
Velocity: min 1.89278e-05 max 0.211596

Setting traction on solid interfaces
Interpolating face values using AMI
Total force on fluid interface 0: (-0.0305185 -0.0305185 -0.000191295)
Total force on solid interface 0: (0.0305226 0.0305226 0.000191319)

Evolving solid solver
Solving the momentum equation for DD
    Corr, res, relRes, matRes, iters
    100, 2.26384e-07, 1.19596e-07, 0, 9
    200, 6.33894e-09, 4.11874e-09, 0, 3
    The relative residual has converged
    216, 4.13e-09, 6.94743e-10, 0, 2

Interpolating point values using AMI
Interpolating point values using AMI
FSI relative residual1 norm for interface 0: 0.000243232
FSI residual2 norm for interface 0: 0.000278349

Time = 0.0008, iteration: 16
Current fsi under-relaxation factor (Aitken) of wall: 0.556623
Maximal accumulated displacement of interface 0: 0.000265859
GAMG:  Solving for cellMotionUx, Initial residual = 0.833374, Final residual = 7.58019e-18, No Iterations 1
GAMG:  Solving for cellMotionUy, Initial residual = 0.833466, Final residual = 8.23922e-18, No Iterations 1
GAMG:  Solving for cellMotionUz, Initial residual = 0.783526, Final residual = 8.16966e-18, No Iterations 1
Evolving fluid model: sonicLiquidFluid
volume continuity errors : sum local = 3.02599e-15, global = -4.8025e-18
GAMG:  Solving for pcorr, Initial residual = 1, Final residual = 8.58693e-07, No Iterations 20
GAMG:  Solving for pcorr, Initial residual = 0.00730539, Final residual = 8.63289e-07, No Iterations 7
Region: fluid Courant Number mean: 0.00994943 max: 0.491303
PIMPLE: iteration 1
diagonal:  Solving for rho, Initial residual = 0, Final residual = 0, No Iterations 0
DILUPBiCG:  Solving for Ux, Initial residual = 0.00102118, Final residual = 6.76408e-11, No Iterations 3
DILUPBiCG:  Solving for Uy, Initial residual = 0.00102121, Final residual = 6.76103e-11, No Iterations 3
DILUPBiCG:  Solving for Uz, Initial residual = 0.000695173, Final residual = 6.68669e-09, No Iterations 2
GAMG:  Solving for p, Initial residual = 0.00857573, Final residual = 7.6663e-07, No Iterations 8
diagonal:  Solving for rho, Initial residual = 0, Final residual = 0, No Iterations 0
time step continuity errors : sum local = 2.20703e-07, global = 2.48859e-08, cumulative = 3.33181e-07
GAMG:  Solving for p, Initial residual = 0.000357458, Final residual = 4.97983e-07, No Iterations 5
diagonal:  Solving for rho, Initial residual = 0, Final residual = 0, No Iterations 0
time step continuity errors : sum local = 2.16043e-07, global = 1.40112e-08, cumulative = 3.47192e-07
PIMPLE: iteration 2
diagonal:  Solving for rho, Initial residual = 0, Final residual = 0, No Iterations 0
DILUPBiCG:  Solving for Ux, Initial residual = 0.00395586, Final residual = 1.37481e-11, No Iterations 4
DILUPBiCG:  Solving for Uy, Initial residual = 0.00395566, Final residual = 1.38646e-11, No Iterations 4
DILUPBiCG:  Solving for Uz, Initial residual = 0.00136657, Final residual = 5.09629e-12, No Iterations 4
GAMG:  Solving for p, Initial residual = 0.0086747, Final residual = 9.97988e-07, No Iterations 6
diagonal:  Solving for rho, Initial residual = 0, Final residual = 0, No Iterations 0
time step continuity errors : sum local = 1.73207e-07, global = 2.05802e-09, cumulative = 3.4925e-07
GAMG:  Solving for p, Initial residual = 0.000568389, Final residual = 9.81209e-07, No Iterations 4
diagonal:  Solving for rho, Initial residual = 0, Final residual = 0, No Iterations 0
time step continuity errors : sum local = 1.64857e-07, global = 1.24885e-08, cumulative = 3.61739e-07

Density: min 1000 max 1001.33
Density variation: 1.3333 ref: 10
Pressure: min 0 max 1333.3
Velocity: min 1.05993e-06 max 0.211763

Setting traction on solid interfaces
Interpolating face values using AMI
Total force on fluid interface 0: (-0.0302474 -0.0302474 -0.000191312)
Total force on solid interface 0: (0.0302514 0.0302514 0.000191336)

Evolving solid solver
Solving the momentum equation for DD
    Corr, res, relRes, matRes, iters
    100, 1.00699e-07, 3.02478e-08, 0, 9
    200, 7.90432e-09, 2.57743e-09, 0, 5
    The relative residual has converged
    246, 3.47489e-09, 9.96194e-10, 0, 3

Interpolating point values using AMI
Interpolating point values using AMI
FSI relative residual1 norm for interface 0: 0.000877723
FSI residual2 norm for interface 0: 0.00100445

Time = 0.0008, iteration: 17
Current fsi under-relaxation factor (Aitken) of wall: 0.110197
Maximal accumulated displacement of interface 0: 0.000131323
GAMG:  Solving for cellMotionUx, Initial residual = 0.739984, Final residual = 5.27245e-18, No Iterations 1
GAMG:  Solving for cellMotionUy, Initial residual = 0.741561, Final residual = 4.60079e-18, No Iterations 1
GAMG:  Solving for cellMotionUz, Initial residual = 0.905843, Final residual = 7.60194e-18, No Iterations 1
Evolving fluid model: sonicLiquidFluid
volume continuity errors : sum local = 3.02903e-15, global = 3.86136e-18
GAMG:  Solving for pcorr, Initial residual = 1, Final residual = 8.55204e-07, No Iterations 20
GAMG:  Solving for pcorr, Initial residual = 0.00731908, Final residual = 8.67171e-07, No Iterations 7
Region: fluid Courant Number mean: 0.00992954 max: 0.490924
PIMPLE: iteration 1
diagonal:  Solving for rho, Initial residual = 0, Final residual = 0, No Iterations 0
DILUPBiCG:  Solving for Ux, Initial residual = 0.00102897, Final residual = 6.80649e-11, No Iterations 3
DILUPBiCG:  Solving for Uy, Initial residual = 0.00102893, Final residual = 6.80351e-11, No Iterations 3
DILUPBiCG:  Solving for Uz, Initial residual = 0.000703995, Final residual = 7.18041e-09, No Iterations 2
GAMG:  Solving for p, Initial residual = 0.00846537, Final residual = 6.46741e-07, No Iterations 7
diagonal:  Solving for rho, Initial residual = 0, Final residual = 0, No Iterations 0
time step continuity errors : sum local = 2.10781e-07, global = 1.90711e-08, cumulative = 3.8081e-07
GAMG:  Solving for p, Initial residual = 0.000339018, Final residual = 9.00796e-07, No Iterations 4
diagonal:  Solving for rho, Initial residual = 0, Final residual = 0, No Iterations 0
time step continuity errors : sum local = 2.31512e-07, global = 1.98158e-08, cumulative = 4.00626e-07
PIMPLE: iteration 2
diagonal:  Solving for rho, Initial residual = 0, Final residual = 0, No Iterations 0
DILUPBiCG:  Solving for Ux, Initial residual = 0.00369971, Final residual = 1.43192e-11, No Iterations 4
DILUPBiCG:  Solving for Uy, Initial residual = 0.00369956, Final residual = 1.44595e-11, No Iterations 4
DILUPBiCG:  Solving for Uz, Initial residual = 0.000834279, Final residual = 3.23773e-12, No Iterations 4
GAMG:  Solving for p, Initial residual = 0.00863379, Final residual = 9.70252e-07, No Iterations 7
diagonal:  Solving for rho, Initial residual = 0, Final residual = 0, No Iterations 0
time step continuity errors : sum local = 1.60493e-07, global = -4.30533e-08, cumulative = 3.57572e-07
GAMG:  Solving for p, Initial residual = 0.000559052, Final residual = 5.6224e-07, No Iterations 5
diagonal:  Solving for rho, Initial residual = 0, Final residual = 0, No Iterations 0
time step continuity errors : sum local = 1.44204e-07, global = 1.73367e-08, cumulative = 3.74909e-07

Density: min 1000 max 1001.33
Density variation: 1.3333 ref: 10
Pressure: min 0 max 1333.3
Velocity: min 1.88113e-05 max 0.211686

Setting traction on solid interfaces
Interpolating face values using AMI
Total force on fluid interface 0: (-0.0304898 -0.0304898 -0.000191308)
Total force on solid interface 0: (0.030494 0.030494 0.000191333)

Evolving solid solver
Solving the momentum equation for DD
    Corr, res, relRes, matRes, iters
    100, 9.60789e-08, 2.87167e-08, 0, 9
    The relative residual has converged
    194, 4.07007e-09, 9.8402e-10, 0, 3

Interpolating point values using AMI
Interpolating point values using AMI
FSI relative residual1 norm for interface 0: 0.000115354
FSI residual2 norm for interface 0: 0.000132008

Time = 0.0008, iteration: 18
Current fsi under-relaxation factor (Aitken) of wall: 0.101227
Maximal accumulated displacement of interface 0: 1.77173e-05
GAMG:  Solving for cellMotionUx, Initial residual = 0.68463, Final residual = 1.19565e-18, No Iterations 1
GAMG:  Solving for cellMotionUy, Initial residual = 0.688048, Final residual = 9.68378e-19, No Iterations 1
GAMG:  Solving for cellMotionUz, Initial residual = 0.913101, Final residual = 3.54442e-18, No Iterations 1
Evolving fluid model: sonicLiquidFluid
volume continuity errors : sum local = 2.96247e-15, global = 8.57876e-19
GAMG:  Solving for pcorr, Initial residual = 1, Final residual = 8.56311e-07, No Iterations 20
GAMG:  Solving for pcorr, Initial residual = 0.00731365, Final residual = 8.66264e-07, No Iterations 7
Region: fluid Courant Number mean: 0.00993416 max: 0.491027
PIMPLE: iteration 1
diagonal:  Solving for rho, Initial residual = 0, Final residual = 0, No Iterations 0
DILUPBiCG:  Solving for Ux, Initial residual = 0.00102869, Final residual = 6.79972e-11, No Iterations 3
DILUPBiCG:  Solving for Uy, Initial residual = 0.0010287, Final residual = 6.79706e-11, No Iterations 3
DILUPBiCG:  Solving for Uz, Initial residual = 0.000700884, Final residual = 6.3332e-09, No Iterations 2
GAMG:  Solving for p, Initial residual = 0.00850731, Final residual = 6.36184e-07, No Iterations 7
diagonal:  Solving for rho, Initial residual = 0, Final residual = 0, No Iterations 0
time step continuity errors : sum local = 2.11735e-07, global = 1.82397e-08, cumulative = 3.93149e-07
GAMG:  Solving for p, Initial residual = 0.000339998, Final residual = 5.91817e-07, No Iterations 4
diagonal:  Solving for rho, Initial residual = 0, Final residual = 0, No Iterations 0
time step continuity errors : sum local = 2.14509e-07, global = 3.59586e-09, cumulative = 3.96745e-07
PIMPLE: iteration 2
diagonal:  Solving for rho, Initial residual = 0, Final residual = 0, No Iterations 0
DILUPBiCG:  Solving for Ux, Initial residual = 0.003758, Final residual = 1.41933e-11, No Iterations 4
DILUPBiCG:  Solving for Uy, Initial residual = 0.00375793, Final residual = 1.43268e-11, No Iterations 4
DILUPBiCG:  Solving for Uz, Initial residual = 0.000959566, Final residual = 3.72921e-12, No Iterations 4
GAMG:  Solving for p, Initial residual = 0.00864543, Final residual = 8.80509e-07, No Iterations 7
diagonal:  Solving for rho, Initial residual = 0, Final residual = 0, No Iterations 0
time step continuity errors : sum local = 1.51992e-07, global = -4.04894e-08, cumulative = 3.56255e-07
GAMG:  Solving for p, Initial residual = 0.00056165, Final residual = 4.53832e-07, No Iterations 5
diagonal:  Solving for rho, Initial residual = 0, Final residual = 0, No Iterations 0
time step continuity errors : sum local = 1.4027e-07, global = 6.61967e-09, cumulative = 3.62875e-07

Density: min 1000 max 1001.33
Density variation: 1.3333 ref: 10
Pressure: min 0 max 1333.3
Velocity: min 1.88539e-05 max 0.211691

Setting traction on solid interfaces
Interpolating face values using AMI
Total force on fluid interface 0: (-0.0304686 -0.0304686 -0.000191307)
Total force on solid interface 0: (0.0304728 0.0304728 0.000191332)

Evolving solid solver
Solving the momentum equation for DD
    Corr, res, relRes, matRes, iters
    100, 7.76179e-09, 3.50582e-09, 0, 4
    The relative residual has converged
    135, 1.99026e-09, 3.03021e-10, 0, 1

Interpolating point values using AMI
Interpolating point values using AMI
FSI relative residual1 norm for interface 0: 5.57507e-05
FSI residual2 norm for interface 0: 6.38e-05

Time = 0.0008, iteration: 19
Current fsi under-relaxation factor (Aitken) of wall: 0.118594
Maximal accumulated displacement of interface 0: 1.64105e-05
GAMG:  Solving for cellMotionUx, Initial residual = 0.491467, Final residual = 4.90634e-18, No Iterations 1
GAMG:  Solving for cellMotionUy, Initial residual = 0.495022, Final residual = 4.73077e-18, No Iterations 1
GAMG:  Solving for cellMotionUz, Initial residual = 0.351357, Final residual = 8.383e-18, No Iterations 1
Evolving fluid model: sonicLiquidFluid
volume continuity errors : sum local = 3.04779e-15, global = 6.34015e-19
GAMG:  Solving for pcorr, Initial residual = 1, Final residual = 8.5631e-07, No Iterations 20
GAMG:  Solving for pcorr, Initial residual = 0.00731405, Final residual = 8.6624e-07, No Iterations 7
Region: fluid Courant Number mean: 0.00993361 max: 0.491022
PIMPLE: iteration 1
diagonal:  Solving for rho, Initial residual = 0, Final residual = 0, No Iterations 0
DILUPBiCG:  Solving for Ux, Initial residual = 0.00102711, Final residual = 6.79207e-11, No Iterations 3
DILUPBiCG:  Solving for Uy, Initial residual = 0.00102711, Final residual = 6.78969e-11, No Iterations 3
DILUPBiCG:  Solving for Uz, Initial residual = 0.000700792, Final residual = 6.63007e-09, No Iterations 2
GAMG:  Solving for p, Initial residual = 0.00850307, Final residual = 6.96099e-07, No Iterations 7
diagonal:  Solving for rho, Initial residual = 0, Final residual = 0, No Iterations 0
time step continuity errors : sum local = 2.13767e-07, global = 2.00732e-08, cumulative = 3.82948e-07
GAMG:  Solving for p, Initial residual = 0.000338185, Final residual = 6.23683e-07, No Iterations 4
diagonal:  Solving for rho, Initial residual = 0, Final residual = 0, No Iterations 0
time step continuity errors : sum local = 2.15921e-07, global = 5.40411e-09, cumulative = 3.88352e-07
PIMPLE: iteration 2
diagonal:  Solving for rho, Initial residual = 0, Final residual = 0, No Iterations 0
DILUPBiCG:  Solving for Ux, Initial residual = 0.00373877, Final residual = 1.4191e-11, No Iterations 4
DILUPBiCG:  Solving for Uy, Initial residual = 0.0037387, Final residual = 1.43238e-11, No Iterations 4
DILUPBiCG:  Solving for Uz, Initial residual = 0.000935108, Final residual = 3.66702e-12, No Iterations 4
GAMG:  Solving for p, Initial residual = 0.00864425, Final residual = 9.00014e-07, No Iterations 7
diagonal:  Solving for rho, Initial residual = 0, Final residual = 0, No Iterations 0
time step continuity errors : sum local = 1.53305e-07, global = -4.13608e-08, cumulative = 3.46992e-07
GAMG:  Solving for p, Initial residual = 0.000561169, Final residual = 4.602e-07, No Iterations 5
diagonal:  Solving for rho, Initial residual = 0, Final residual = 0, No Iterations 0
time step continuity errors : sum local = 1.40505e-07, global = 7.45162e-09, cumulative = 3.54443e-07

Density: min 1000 max 1001.33
Density variation: 1.3333 ref: 10
Pressure: min 0 max 1333.3
Velocity: min 1.88709e-05 max 0.211691

Setting traction on solid interfaces
Interpolating face values using AMI
Total force on fluid interface 0: (-0.0304687 -0.0304687 -0.000191306)
Total force on solid interface 0: (0.0304729 0.0304729 0.000191331)

Evolving solid solver
Solving the momentum equation for DD
    Corr, res, relRes, matRes, iters
    100, 5.61049e-09, 2.25797e-09, 0, 4
    The relative residual has converged
    125, 2.02222e-09, 2.70623e-10, 0, 1

Interpolating point values using AMI
Interpolating point values using AMI
FSI relative residual1 norm for interface 0: 3.77711e-05
FSI residual2 norm for interface 0: 4.32245e-05

Time = 0.0008, iteration: 20
Current fsi under-relaxation factor (Aitken) of wall: 0.278969
Maximal accumulated displacement of interface 0: 3.43252e-05
GAMG:  Solving for cellMotionUx, Initial residual = 0.17102, Final residual = 7.55777e-18, No Iterations 1
GAMG:  Solving for cellMotionUy, Initial residual = 0.1708, Final residual = 7.84404e-18, No Iterations 1
GAMG:  Solving for cellMotionUz, Initial residual = 0.199986, Final residual = 7.37243e-18, No Iterations 1
Evolving fluid model: sonicLiquidFluid
volume continuity errors : sum local = 3.01429e-15, global = 2.88548e-18
GAMG:  Solving for pcorr, Initial residual = 1, Final residual = 8.56404e-07, No Iterations 20
GAMG:  Solving for pcorr, Initial residual = 0.00731408, Final residual = 8.6612e-07, No Iterations 7
Region: fluid Courant Number mean: 0.00993339 max: 0.491031
PIMPLE: iteration 1
diagonal:  Solving for rho, Initial residual = 0, Final residual = 0, No Iterations 0
DILUPBiCG:  Solving for Ux, Initial residual = 0.00102731, Final residual = 6.79459e-11, No Iterations 3
DILUPBiCG:  Solving for Uy, Initial residual = 0.0010273, Final residual = 6.79223e-11, No Iterations 3
DILUPBiCG:  Solving for Uz, Initial residual = 0.000700778, Final residual = 6.61112e-09, No Iterations 2
GAMG:  Solving for p, Initial residual = 0.00850344, Final residual = 6.93192e-07, No Iterations 7
diagonal:  Solving for rho, Initial residual = 0, Final residual = 0, No Iterations 0
time step continuity errors : sum local = 2.13619e-07, global = 1.9937e-08, cumulative = 3.7438e-07
GAMG:  Solving for p, Initial residual = 0.000338255, Final residual = 6.23792e-07, No Iterations 4
diagonal:  Solving for rho, Initial residual = 0, Final residual = 0, No Iterations 0
time step continuity errors : sum local = 2.15962e-07, global = 5.66198e-09, cumulative = 3.80042e-07
PIMPLE: iteration 2
diagonal:  Solving for rho, Initial residual = 0, Final residual = 0, No Iterations 0
DILUPBiCG:  Solving for Ux, Initial residual = 0.0037381, Final residual = 1.41633e-11, No Iterations 4
DILUPBiCG:  Solving for Uy, Initial residual = 0.00373803, Final residual = 1.42941e-11, No Iterations 4
DILUPBiCG:  Solving for Uz, Initial residual = 0.00093412, Final residual = 3.67337e-12, No Iterations 4
GAMG:  Solving for p, Initial residual = 0.00864437, Final residual = 9.00942e-07, No Iterations 7
diagonal:  Solving for rho, Initial residual = 0, Final residual = 0, No Iterations 0
time step continuity errors : sum local = 1.53375e-07, global = -4.13795e-08, cumulative = 3.38663e-07
GAMG:  Solving for p, Initial residual = 0.000561192, Final residual = 4.60337e-07, No Iterations 5
diagonal:  Solving for rho, Initial residual = 0, Final residual = 0, No Iterations 0
time step continuity errors : sum local = 1.40491e-07, global = 7.50075e-09, cumulative = 3.46163e-07

Density: min 1000 max 1001.33
Density variation: 1.3333 ref: 10
Pressure: min 0 max 1333.3
Velocity: min 1.88923e-05 max 0.211694

Setting traction on solid interfaces
Interpolating face values using AMI
Total force on fluid interface 0: (-0.0304687 -0.0304687 -0.000191305)
Total force on solid interface 0: (0.0304728 0.0304728 0.00019133)

Evolving solid solver
Solving the momentum equation for DD
    Corr, res, relRes, matRes, iters
    100, 9.30929e-09, 4.00981e-09, 0, 4
    The relative residual has converged
    130, 3.58019e-09, 4.05541e-10, 0, 1

Interpolating point values using AMI
Interpolating point values using AMI
FSI relative residual1 norm for interface 0: 2.0995e-05
FSI residual2 norm for interface 0: 2.40263e-05

Time = 0.0008, iteration: 21
Current fsi under-relaxation factor (Aitken) of wall: 0.325397
Maximal accumulated displacement of interface 0: 2.89972e-05
GAMG:  Solving for cellMotionUx, Initial residual = 0.606598, Final residual = 3.87461e-18, No Iterations 1
GAMG:  Solving for cellMotionUy, Initial residual = 0.607038, Final residual = 3.248e-18, No Iterations 1
GAMG:  Solving for cellMotionUz, Initial residual = 0.541155, Final residual = 3.54477e-18, No Iterations 1
Evolving fluid model: sonicLiquidFluid
volume continuity errors : sum local = 3.03697e-15, global = -7.47767e-20
GAMG:  Solving for pcorr, Initial residual = 1, Final residual = 8.56403e-07, No Iterations 20
GAMG:  Solving for pcorr, Initial residual = 0.00731422, Final residual = 8.66087e-07, No Iterations 7
[...]
diagonal:  Solving for rho, Initial residual = 0, Final residual = 0, No Iterations 0
time step continuity errors : sum local = 1.40649e-08, global = -1.66596e-09, cumulative = 1.63657e-06
PIMPLE: iteration 2
diagonal:  Solving for rho, Initial residual = 0, Final residual = 0, No Iterations 0
DILUPBiCG:  Solving for Ux, Initial residual = 0.00447718, Final residual = 3.01208e-10, No Iterations 3
DILUPBiCG:  Solving for Uy, Initial residual = 0.00447791, Final residual = 3.01263e-10, No Iterations 3
DILUPBiCG:  Solving for Uz, Initial residual = 0.000988595, Final residual = 1.50879e-11, No Iterations 3
GAMG:  Solving for p, Initial residual = 0.0514646, Final residual = 7.06143e-07, No Iterations 10
diagonal:  Solving for rho, Initial residual = 0, Final residual = 0, No Iterations 0
time step continuity errors : sum local = 1.53083e-08, global = -1.99472e-09, cumulative = 1.63457e-06
GAMG:  Solving for p, Initial residual = 0.00165168, Final residual = 6.59801e-07, No Iterations 7
diagonal:  Solving for rho, Initial residual = 0, Final residual = 0, No Iterations 0
time step continuity errors : sum local = 1.66564e-08, global = -2.22527e-09, cumulative = 1.63235e-06

Density: min 999.894 max 1000
Density variation: 0.109697 ref: 10
Pressure: min -106.401 max 3.29648
Velocity: min 0.000106963 max 0.11531

Setting traction on solid interfaces
Interpolating face values using AMI
Total force on fluid interface 0: (0.0125932 0.0125932 -0.000201006)
Total force on solid interface 0: (-0.0125949 -0.0125949 0.000201033)

Evolving solid solver
Solving the momentum equation for DD
    Corr, res, relRes, matRes, iters
    100, 4.10045e-08, 7.47606e-08, 0, 6
    The relative residual has converged
    179, 1.89833e-09, 8.49998e-10, 0, 1

Interpolating point values using AMI
Interpolating point values using AMI
FSI relative residual1 norm for interface 0: 0.000217587
FSI residual2 norm for interface 0: 0.000231067

Time = 0.02, iteration: 13
Current fsi under-relaxation factor (Aitken) of wall: 0.258618
Maximal accumulated displacement of interface 0: 1.05467e-05
GAMG:  Solving for cellMotionUx, Initial residual = 0.681137, Final residual = 2.86102e-18, No Iterations 1
GAMG:  Solving for cellMotionUy, Initial residual = 0.717533, Final residual = 4.65814e-18, No Iterations 1
GAMG:  Solving for cellMotionUz, Initial residual = 0.465214, Final residual = 8.93771e-18, No Iterations 1
Evolving fluid model: sonicLiquidFluid
volume continuity errors : sum local = 3.06249e-15, global = 9.25552e-19
GAMG:  Solving for pcorr, Initial residual = 1, Final residual = 8.14434e-07, No Iterations 25
GAMG:  Solving for pcorr, Initial residual = 0.00349117, Final residual = 5.46475e-07, No Iterations 7
Region: fluid Courant Number mean: 0.00996212 max: 0.14098
PIMPLE: iteration 1
diagonal:  Solving for rho, Initial residual = 0, Final residual = 0, No Iterations 0
DILUPBiCG:  Solving for Ux, Initial residual = 0.00182583, Final residual = 1.74013e-09, No Iterations 2
DILUPBiCG:  Solving for Uy, Initial residual = 0.0018267, Final residual = 1.73837e-09, No Iterations 2
DILUPBiCG:  Solving for Uz, Initial residual = 0.000936924, Final residual = 2.8831e-10, No Iterations 2
GAMG:  Solving for p, Initial residual = 0.0514485, Final residual = 6.39082e-07, No Iterations 10
diagonal:  Solving for rho, Initial residual = 0, Final residual = 0, No Iterations 0
time step continuity errors : sum local = 1.53686e-08, global = 1.47313e-09, cumulative = 1.63382e-06
GAMG:  Solving for p, Initial residual = 0.000907909, Final residual = 7.23598e-07, No Iterations 6
diagonal:  Solving for rho, Initial residual = 0, Final residual = 0, No Iterations 0
time step continuity errors : sum local = 1.44454e-08, global = -1.74069e-09, cumulative = 1.63208e-06
PIMPLE: iteration 2
diagonal:  Solving for rho, Initial residual = 0, Final residual = 0, No Iterations 0
DILUPBiCG:  Solving for Ux, Initial residual = 0.00447822, Final residual = 3.00047e-10, No Iterations 3
DILUPBiCG:  Solving for Uy, Initial residual = 0.00447893, Final residual = 3.00027e-10, No Iterations 3
DILUPBiCG:  Solving for Uz, Initial residual = 0.000989766, Final residual = 1.49587e-11, No Iterations 3
GAMG:  Solving for p, Initial residual = 0.0514756, Final residual = 7.53893e-07, No Iterations 10
diagonal:  Solving for rho, Initial residual = 0, Final residual = 0, No Iterations 0
time step continuity errors : sum local = 1.53404e-08, global = -2.19405e-09, cumulative = 1.62989e-06
GAMG:  Solving for p, Initial residual = 0.00165066, Final residual = 6.94416e-07, No Iterations 7
diagonal:  Solving for rho, Initial residual = 0, Final residual = 0, No Iterations 0
time step continuity errors : sum local = 1.67796e-08, global = -2.0314e-09, cumulative = 1.62785e-06

Density: min 999.894 max 1000
Density variation: 0.109698 ref: 10
Pressure: min -106.405 max 3.29361
Velocity: min 0.000106862 max 0.11531

Setting traction on solid interfaces
Interpolating face values using AMI
Total force on fluid interface 0: (0.0125938 0.0125938 -0.000200955)
Total force on solid interface 0: (-0.0125955 -0.0125955 0.000200982)

Evolving solid solver
Solving the momentum equation for DD
    Corr, res, relRes, matRes, iters
    100, 2.44731e-08, 6.04526e-08, 0, 5
    The relative residual has converged
    197, 1.63435e-09, 0, 0, 0

Interpolating point values using AMI
Interpolating point values using AMI
FSI relative residual1 norm for interface 0: 0.000160687
FSI residual2 norm for interface 0: 0.000170642

Time = 0.02, iteration: 14
Current fsi under-relaxation factor (Aitken) of wall: 0.987568
Maximal accumulated displacement of interface 0: 2.74609e-05
GAMG:  Solving for cellMotionUx, Initial residual = 0.507282, Final residual = 9.69415e-18, No Iterations 1
GAMG:  Solving for cellMotionUy, Initial residual = 0.507718, Final residual = 1.04622e-17, No Iterations 1
GAMG:  Solving for cellMotionUz, Initial residual = 0.559188, Final residual = 1.6762e-17, No Iterations 1
Evolving fluid model: sonicLiquidFluid
volume continuity errors : sum local = 3.07614e-15, global = -6.73153e-19
GAMG:  Solving for pcorr, Initial residual = 1, Final residual = 8.14463e-07, No Iterations 25
GAMG:  Solving for pcorr, Initial residual = 0.00349105, Final residual = 5.46476e-07, No Iterations 7
Region: fluid Courant Number mean: 0.00995795 max: 0.140971
PIMPLE: iteration 1
diagonal:  Solving for rho, Initial residual = 0, Final residual = 0, No Iterations 0
DILUPBiCG:  Solving for Ux, Initial residual = 0.00182608, Final residual = 1.73947e-09, No Iterations 2
DILUPBiCG:  Solving for Uy, Initial residual = 0.00182695, Final residual = 1.73772e-09, No Iterations 2
DILUPBiCG:  Solving for Uz, Initial residual = 0.000936354, Final residual = 2.89033e-10, No Iterations 2
GAMG:  Solving for p, Initial residual = 0.051429, Final residual = 6.42528e-07, No Iterations 10
diagonal:  Solving for rho, Initial residual = 0, Final residual = 0, No Iterations 0
time step continuity errors : sum local = 1.55546e-08, global = 1.52992e-09, cumulative = 1.62938e-06
GAMG:  Solving for p, Initial residual = 0.000907805, Final residual = 7.24633e-07, No Iterations 6
diagonal:  Solving for rho, Initial residual = 0, Final residual = 0, No Iterations 0
time step continuity errors : sum local = 1.45049e-08, global = -1.70054e-09, cumulative = 1.62768e-06
PIMPLE: iteration 2
diagonal:  Solving for rho, Initial residual = 0, Final residual = 0, No Iterations 0
DILUPBiCG:  Solving for Ux, Initial residual = 0.00447719, Final residual = 2.97939e-10, No Iterations 3
DILUPBiCG:  Solving for Uy, Initial residual = 0.0044779, Final residual = 2.97871e-10, No Iterations 3
DILUPBiCG:  Solving for Uz, Initial residual = 0.000991124, Final residual = 1.49514e-11, No Iterations 3
GAMG:  Solving for p, Initial residual = 0.0514903, Final residual = 7.55259e-07, No Iterations 10
diagonal:  Solving for rho, Initial residual = 0, Final residual = 0, No Iterations 0
time step continuity errors : sum local = 1.52887e-08, global = -2.21685e-09, cumulative = 1.62547e-06
GAMG:  Solving for p, Initial residual = 0.00165084, Final residual = 7.08043e-07, No Iterations 7
diagonal:  Solving for rho, Initial residual = 0, Final residual = 0, No Iterations 0
time step continuity errors : sum local = 1.68175e-08, global = -1.84925e-09, cumulative = 1.62362e-06

Density: min 999.894 max 1000
Density variation: 0.109682 ref: 10
Pressure: min -106.384 max 3.29816
Velocity: min 0.000104873 max 0.115309

Setting traction on solid interfaces
Interpolating face values using AMI
Total force on fluid interface 0: (0.0125897 0.0125897 -0.000200811)
Total force on solid interface 0: (-0.0125914 -0.0125914 0.000200837)

Evolving solid solver
Solving the momentum equation for DD
    Corr, res, relRes, matRes, iters
    100, 5.91986e-08, 1.56046e-07, 0, 7
    200, 4.95192e-09, 1.86863e-08, 0, 3
    The relative residual has converged
    250, 1.73188e-09, 9.11171e-10, 0, 1

Interpolating point values using AMI
Interpolating point values using AMI
FSI relative residual1 norm for interface 0: 1.08656e-05
FSI residual2 norm for interface 0: 1.15387e-05

Time = 0.02, iteration: 15
Current fsi under-relaxation factor (Aitken) of wall: 0.993071
Maximal accumulated displacement of interface 0: 1.94467e-05
GAMG:  Solving for cellMotionUx, Initial residual = 0.79653, Final residual = 1.24015e-17, No Iterations 1
GAMG:  Solving for cellMotionUy, Initial residual = 0.792339, Final residual = 9.8072e-18, No Iterations 1
GAMG:  Solving for cellMotionUz, Initial residual = 0.581723, Final residual = 2.07126e-19, No Iterations 1
Evolving fluid model: sonicLiquidFluid
volume continuity errors : sum local = 3.04828e-15, global = 2.39382e-18
GAMG:  Solving for pcorr, Initial residual = 1, Final residual = 8.14429e-07, No Iterations 25
GAMG:  Solving for pcorr, Initial residual = 0.00349107, Final residual = 5.46482e-07, No Iterations 7
Region: fluid Courant Number mean: 0.00996086 max: 0.14101
PIMPLE: iteration 1
diagonal:  Solving for rho, Initial residual = 0, Final residual = 0, No Iterations 0
DILUPBiCG:  Solving for Ux, Initial residual = 0.00182586, Final residual = 1.74005e-09, No Iterations 2
DILUPBiCG:  Solving for Uy, Initial residual = 0.00182673, Final residual = 1.73829e-09, No Iterations 2
DILUPBiCG:  Solving for Uz, Initial residual = 0.00093712, Final residual = 2.87677e-10, No Iterations 2
GAMG:  Solving for p, Initial residual = 0.0515467, Final residual = 9.0169e-07, No Iterations 9
diagonal:  Solving for rho, Initial residual = 0, Final residual = 0, No Iterations 0
time step continuity errors : sum local = 1.66204e-08, global = 1.96681e-09, cumulative = 1.62558e-06
GAMG:  Solving for p, Initial residual = 0.000913384, Final residual = 5.72211e-07, No Iterations 6
diagonal:  Solving for rho, Initial residual = 0, Final residual = 0, No Iterations 0
time step continuity errors : sum local = 1.3656e-08, global = -1.47512e-09, cumulative = 1.62411e-06
PIMPLE: iteration 2
diagonal:  Solving for rho, Initial residual = 0, Final residual = 0, No Iterations 0
DILUPBiCG:  Solving for Ux, Initial residual = 0.00447747, Final residual = 3.02924e-10, No Iterations 3
DILUPBiCG:  Solving for Uy, Initial residual = 0.00447823, Final residual = 3.0306e-10, No Iterations 3
DILUPBiCG:  Solving for Uz, Initial residual = 0.000986802, Final residual = 1.50875e-11, No Iterations 3
GAMG:  Solving for p, Initial residual = 0.0513599, Final residual = 6.60652e-07, No Iterations 10
diagonal:  Solving for rho, Initial residual = 0, Final residual = 0, No Iterations 0
time step continuity errors : sum local = 1.52744e-08, global = -1.84069e-09, cumulative = 1.62227e-06
GAMG:  Solving for p, Initial residual = 0.00164845, Final residual = 6.46063e-07, No Iterations 7
diagonal:  Solving for rho, Initial residual = 0, Final residual = 0, No Iterations 0
time step continuity errors : sum local = 1.65756e-08, global = -2.34773e-09, cumulative = 1.61992e-06

Density: min 999.893 max 1000
Density variation: 0.109813 ref: 10
Pressure: min -106.575 max 3.23802
Velocity: min 0.000111301 max 0.115319

Setting traction on solid interfaces
Interpolating face values using AMI
Total force on fluid interface 0: (0.0126244 0.0126244 -0.00020081)
Total force on solid interface 0: (-0.0126261 -0.0126261 0.000200837)

Evolving solid solver
Solving the momentum equation for DD
    Corr, res, relRes, matRes, iters
    100, 7.70658e-08, 1.58181e-07, 0, 7
    The relative residual has converged
    190, 1.99482e-09, 9.29978e-10, 0, 1

Interpolating point values using AMI
Interpolating point values using AMI
FSI relative residual1 norm for interface 0: 9.41316e-05
FSI residual2 norm for interface 0: 9.99633e-05

Time = 0.02, iteration: 16
Current fsi under-relaxation factor (Aitken) of wall: 0.101318
Maximal accumulated displacement of interface 0: 1.64922e-05
GAMG:  Solving for cellMotionUx, Initial residual = 0.810909, Final residual = 4.93278e-18, No Iterations 1
GAMG:  Solving for cellMotionUy, Initial residual = 0.814358, Final residual = 5.93527e-18, No Iterations 1
GAMG:  Solving for cellMotionUz, Initial residual = 0.99855, Final residual = 8.29076e-18, No Iterations 1
Evolving fluid model: sonicLiquidFluid
volume continuity errors : sum local = 3.07579e-15, global = 2.7914e-19
GAMG:  Solving for pcorr, Initial residual = 1, Final residual = 8.14449e-07, No Iterations 25
GAMG:  Solving for pcorr, Initial residual = 0.00349131, Final residual = 5.46521e-07, No Iterations 7
Region: fluid Courant Number mean: 0.00995755 max: 0.140964
PIMPLE: iteration 1
diagonal:  Solving for rho, Initial residual = 0, Final residual = 0, No Iterations 0
DILUPBiCG:  Solving for Ux, Initial residual = 0.00182595, Final residual = 1.73894e-09, No Iterations 2
DILUPBiCG:  Solving for Uy, Initial residual = 0.00182682, Final residual = 1.73719e-09, No Iterations 2
DILUPBiCG:  Solving for Uz, Initial residual = 0.000937264, Final residual = 2.87962e-10, No Iterations 2
GAMG:  Solving for p, Initial residual = 0.0512823, Final residual = 6.51222e-07, No Iterations 10
diagonal:  Solving for rho, Initial residual = 0, Final residual = 0, No Iterations 0
time step continuity errors : sum local = 1.60994e-08, global = 1.68309e-09, cumulative = 1.6216e-06
GAMG:  Solving for p, Initial residual = 0.000903038, Final residual = 7.41395e-07, No Iterations 6
diagonal:  Solving for rho, Initial residual = 0, Final residual = 0, No Iterations 0
time step continuity errors : sum local = 1.4796e-08, global = -1.46988e-09, cumulative = 1.62013e-06
PIMPLE: iteration 2
diagonal:  Solving for rho, Initial residual = 0, Final residual = 0, No Iterations 0
DILUPBiCG:  Solving for Ux, Initial residual = 0.00448059, Final residual = 3.0008e-10, No Iterations 3
DILUPBiCG:  Solving for Uy, Initial residual = 0.0044813, Final residual = 3.00013e-10, No Iterations 3
DILUPBiCG:  Solving for Uz, Initial residual = 0.000991045, Final residual = 1.47353e-11, No Iterations 3
GAMG:  Solving for p, Initial residual = 0.0515024, Final residual = 8.29688e-07, No Iterations 10
diagonal:  Solving for rho, Initial residual = 0, Final residual = 0, No Iterations 0
time step continuity errors : sum local = 1.54019e-08, global = -2.56946e-09, cumulative = 1.61756e-06
GAMG:  Solving for p, Initial residual = 0.00164898, Final residual = 7.54269e-07, No Iterations 7
diagonal:  Solving for rho, Initial residual = 0, Final residual = 0, No Iterations 0
time step continuity errors : sum local = 1.6907e-08, global = -1.50129e-09, cumulative = 1.61606e-06

Density: min 999.894 max 1000
Density variation: 0.109694 ref: 10
Pressure: min -106.4 max 3.29488
Velocity: min 0.000105356 max 0.11531

Setting traction on solid interfaces
Interpolating face values using AMI
Total force on fluid interface 0: (0.0125928 0.0125928 -0.00020081)
Total force on solid interface 0: (-0.0125945 -0.0125945 0.000200837)

Evolving solid solver
Solving the momentum equation for DD
    Corr, res, relRes, matRes, iters
    100, 6.7112e-08, 1.20353e-07, 0, 7
    The relative residual has converged
    190, 1.94413e-09, 9.64385e-10, 0, 1

Interpolating point values using AMI
Interpolating point values using AMI
FSI relative residual1 norm for interface 0: 1.60604e-06
FSI residual2 norm for interface 0: 1.70554e-06

Time = 0.02, iteration: 17
Current fsi under-relaxation factor (Aitken) of wall: 0.100105
Maximal accumulated displacement of interface 0: 3.34975e-07
GAMG:  Solving for cellMotionUx, Initial residual = 0.685356, Final residual = 1.85758e-19, No Iterations 1
GAMG:  Solving for cellMotionUy, Initial residual = 0.688252, Final residual = 1.72348e-19, No Iterations 1
GAMG:  Solving for cellMotionUz, Initial residual = 0.985954, Final residual = 3.11583e-19, No Iterations 1
Evolving fluid model: sonicLiquidFluid
volume continuity errors : sum local = 3.07348e-15, global = 2.94839e-18
GAMG:  Solving for pcorr, Initial residual = 1, Final residual = 8.14445e-07, No Iterations 25
GAMG:  Solving for pcorr, Initial residual = 0.00349107, Final residual = 5.46481e-07, No Iterations 7
Region: fluid Courant Number mean: 0.00995823 max: 0.140975
PIMPLE: iteration 1
diagonal:  Solving for rho, Initial residual = 0, Final residual = 0, No Iterations 0
DILUPBiCG:  Solving for Ux, Initial residual = 0.00182576, Final residual = 1.73948e-09, No Iterations 2
DILUPBiCG:  Solving for Uy, Initial residual = 0.00182664, Final residual = 1.73772e-09, No Iterations 2
DILUPBiCG:  Solving for Uz, Initial residual = 0.000936939, Final residual = 2.87303e-10, No Iterations 2
GAMG:  Solving for p, Initial residual = 0.0514538, Final residual = 6.54409e-07, No Iterations 10
diagonal:  Solving for rho, Initial residual = 0, Final residual = 0, No Iterations 0
time step continuity errors : sum local = 1.54094e-08, global = 1.50645e-09, cumulative = 1.61757e-06
GAMG:  Solving for p, Initial residual = 0.000907774, Final residual = 7.30193e-07, No Iterations 6
diagonal:  Solving for rho, Initial residual = 0, Final residual = 0, No Iterations 0
time step continuity errors : sum local = 1.44585e-08, global = -1.75344e-09, cumulative = 1.61582e-06
PIMPLE: iteration 2
diagonal:  Solving for rho, Initial residual = 0, Final residual = 0, No Iterations 0
DILUPBiCG:  Solving for Ux, Initial residual = 0.00447807, Final residual = 3.00986e-10, No Iterations 3
DILUPBiCG:  Solving for Uy, Initial residual = 0.00447878, Final residual = 3.00988e-10, No Iterations 3
DILUPBiCG:  Solving for Uz, Initial residual = 0.000989025, Final residual = 1.4932e-11, No Iterations 3
GAMG:  Solving for p, Initial residual = 0.0514782, Final residual = 7.59106e-07, No Iterations 10
diagonal:  Solving for rho, Initial residual = 0, Final residual = 0, No Iterations 0
time step continuity errors : sum local = 1.53664e-08, global = -2.20789e-09, cumulative = 1.61361e-06
GAMG:  Solving for p, Initial residual = 0.00165027, Final residual = 6.91731e-07, No Iterations 7
diagonal:  Solving for rho, Initial residual = 0, Final residual = 0, No Iterations 0
time step continuity errors : sum local = 1.67603e-08, global = -2.09479e-09, cumulative = 1.61151e-06

Density: min 999.894 max 1000
Density variation: 0.109696 ref: 10
Pressure: min -106.402 max 3.29405
Velocity: min 0.000105448 max 0.11531

Setting traction on solid interfaces
Interpolating face values using AMI
Total force on fluid interface 0: (0.0125932 0.0125932 -0.00020081)
Total force on solid interface 0: (-0.0125949 -0.0125949 0.000200837)

Evolving solid solver
Solving the momentum equation for DD
    Corr, res, relRes, matRes, iters
    The relative residual has converged
    84, 1.5438e-09, 0, 0, 0

Interpolating point values using AMI
Interpolating point values using AMI
FSI relative residual1 norm for interface 0: 9.27944e-07
FSI residual2 norm for interface 0: 9.85433e-07
Max epsilonEq = 0.00178165
Max sigmaEq (von Mises stress) = 616.725
ExecutionTime = 1403.85 s  ClockTime = 1568 s


End

