/*---------------------------------------------------------------------------*\
| =========                 |                                                 |
| \\      /  F ield         | foam-extend: Open Source CFD                    |
|  \\    /   O peration     | Version:     4.1                                |
|   \\  /    A nd           | Web:         http://www.foam-extend.org         |
|    \\/     M anipulation  | For copyright notice see file Copyright         |
\*---------------------------------------------------------------------------*/
Build  : 4.1-70b064d0f326
Exec   : solids4Foam
Date   : Dec 15 2022
Time   : 12:22:41
Host   : "iloliveira"
PID    : 269072
CtrlDict : "/home/iloliveira/foam/solids4foam-fork-fe41/tutorials/solids/hyperelasticity/cylinderCrushBijelonja/system/controlDict"
Case   : /home/iloliveira/foam/solids4foam-fork-fe41/tutorials/solids/hyperelasticity/cylinderCrushBijelonja
nProcs : 1
sigFpe : Enabling floating point exception trapping (FOAM_SIGFPE).
allowSystemOperations : Disallowing user-supplied system call operations

// * * * * * * * * * * * * * * * * * * * * * * * * * * * * * * * * * * * * * //
Create time

/*---------------------------------------------------------------------------*\
|    For further information on the solids4Foam toolbox implementations,      |
|    please see the following publications:                                   |
|                                                                             |
|    P. Cardiff, A Karac, P. De Jaeger, H. Jasak, J. Nagy, A. Ivankovic,      |
|    Z. Tukovic: An open-source finite volume toolbox for solid mechanics and |
|    fluid-solid interaction simulations. arXiv:1808.10736v2, 2018, available |
|    at https://arxiv.org/abs/1808.10736.                                     |
|                                                                             |
|    Z. Tukovic, A. Karac, P. Cardiff, H. Jasak, A. Ivankovic: OpenFOAM       |
|    finite volume solver for fluid-solid interaction.  Transactions of       |
|    Famena, 42 (3), pp. 1-31, 2018, 10.21278/TOF.42301.                      |
\*---------------------------------------------------------------------------*/

Selecting physicsModel solidModel
Selecting solidModel nonLinearGeometryUpdatedLagrangian
Selecting dynamicFvMesh staticFvMesh
Creating fixedDisplacement boundary condition
    displacement is time-varying
Symmetry boundary condition with non-orthogonal correction
Symmetry boundary condition with non-orthogonal correction
    under-relaxation method: fixed
Creating the mechanicalModel
Selecting mechanical law MooneyRivlinElastic
    Laplacian equation will be solved for pressure
    pressureSmoothingScaleFactor: 100
Material properties 
    max(c10) = 293000
    max(c01) = 177000
    max(c11) = 0
    max(mu) = 940000
    max(K) = 1.41e+09
Reading individual shadowPatch
    solidContact: topContact
        useNewPointDistanceMethod: false
        projectPointsToPatchBoundary: false
        usePrevCandidateMasterNeighbors: false
    Normal contact model: standardPenalty
    Initialising stored previous normalPenaltyFactors
    Friction contact model: frictionless
    normal penalty factor: 8.63995e+10
Creating displacement function object
    region = region0
    distance from specified point is 0
Creating forceCylinder function object
Creating Jacob function object
Jacobian determinant max. 1 min. 1

Time = 1

Evolving solid solver
Solving the updated Lagrangian form of the momentum equation for DD
setCellDisplacements: reading cellDisplacements
    Corr, res, relRes, matRes, iters
    100, 0.000244563, 0.00232131, 0, 0
    200, 0.000109187, 0.000812646, 0, 0
    300, 9.07574e-05, 0.00113737, 0, 0
    400, 7.96212e-05, 0.00114066, 0, 0
    500, 7.34671e-05, 0.00111079, 0, 0
    600, 7.0496e-05, 0.00108414, 0, 0
    700, 6.88916e-05, 0.00106303, 0, 0
    800, 6.49913e-05, 0.00104573, 0, 0
    900, 5.89474e-05, 0.00103112, 0, 0
    1000, 5.39765e-05, 0.00101824, 0, 0
    1100, 4.92273e-05, 0.00100651, 0, 0
    1200, 4.51541e-05, 0.00099561, 0, 0
    1300, 4.14572e-05, 0.000982688, 0, 0
    1400, 3.8094e-05, 0.00096867, 0, 0
    1500, 3.51387e-05, 0.000954985, 0, 0
    1600, 3.53761e-05, 0.000941545, 0, 0
    1700, 3.62441e-05, 0.000927332, 0, 0
    1800, 3.72712e-05, 0.000911078, 0, 0
    1900, 3.8427e-05, 0.000895544, 0, 0
    2000, 3.9633e-05, 0.000879599, 0, 0
    2100, 2.86271e-05, 0.000329445, 0, 0
    2200, 2.53612e-05, 0.000248435, 0, 0
    2300, 2.26315e-05, 0.000212209, 0, 0
    2400, 2.06066e-05, 0.000175243, 0, 0
    2500, 1.92284e-05, 0.000150838, 0, 0
    2600, 1.79688e-05, 0.000130764, 0, 0
    2700, 1.68916e-05, 0.000115034, 0, 0
    2800, 1.59567e-05, 0.000102119, 0, 0
    2900, 1.51524e-05, 9.12627e-05, 0, 0
    3000, 1.44147e-05, 8.22066e-05, 0, 0
    3100, 1.37124e-05, 7.45518e-05, 0, 0
    3200, 1.30461e-05, 6.80013e-05, 0, 0
    3300, 1.24199e-05, 6.25231e-05, 0, 0
    3400, 1.18306e-05, 5.78399e-05, 0, 0
    3500, 1.12722e-05, 5.37074e-05, 0, 0
    3600, 1.07419e-05, 5.00292e-05, 0, 0
    3700, 1.02407e-05, 4.67227e-05, 0, 0
    3800, 9.76115e-06, 4.37325e-05, 0, 0
    3900, 9.30455e-06, 4.10116e-05, 0, 0
    4000, 8.87145e-06, 3.85205e-05, 0, 0
    4100, 8.45823e-06, 3.62302e-05, 0, 0
    4200, 8.06402e-06, 3.42697e-05, 0, 0
    4300, 7.68771e-06, 3.24576e-05, 0, 0
    4400, 7.32799e-06, 3.07604e-05, 0, 0
    4500, 6.98459e-06, 2.91662e-05, 0, 0
    4600, 6.81677e-06, 3.02148e-05, 0, 0
    4700, 6.48349e-06, 2.85851e-05, 0, 0
    4800, 6.17723e-06, 2.71287e-05, 0, 0
    4900, 5.88545e-06, 2.57531e-05, 0, 0
    5000, 5.60627e-06, 2.44557e-05, 0, 0
    5100, 5.34079e-06, 2.32287e-05, 0, 0
    5200, 5.08757e-06, 2.20672e-05, 0, 0
    5300, 4.84599e-06, 2.09681e-05, 0, 0
    5400, 4.61575e-06, 1.99277e-05, 0, 0
    5500, 4.39633e-06, 1.89421e-05, 0, 0
    5600, 4.18724e-06, 1.80079e-05, 0, 0
    5700, 3.98803e-06, 1.71566e-05, 0, 0
    5800, 3.79824e-06, 1.63503e-05, 0, 0
    5900, 3.61756e-06, 1.55821e-05, 0, 0
    6000, 3.44553e-06, 1.48501e-05, 0, 0
    6100, 3.28167e-06, 1.41527e-05, 0, 0
    6200, 3.1256e-06, 1.3488e-05, 0, 0
    6300, 2.97703e-06, 1.28547e-05, 0, 0
    6400, 2.83569e-06, 1.22511e-05, 0, 0
    6500, 2.70111e-06, 1.16758e-05, 0, 0
    6600, 2.57293e-06, 1.11276e-05, 0, 0
    6700, 2.45086e-06, 1.06133e-05, 0, 0
    6800, 2.33476e-06, 1.01321e-05, 0, 0
    6900, 2.22431e-06, 9.67212e-06, 0, 0
    7000, 2.12217e-06, 9.35544e-06, 0, 0
    7100, 2.01763e-06, 8.79236e-06, 0, 0
    7200, 1.86795e-06, 7.62424e-06, 0, 0
    7300, 1.81845e-06, 8.24499e-06, 0, 0
    7400, 1.75243e-06, 7.57726e-06, 0, 0
    7500, 1.6534e-06, 6.68372e-06, 0, 0
    7600, 1.57598e-06, 7.20483e-06, 0, 0
    7700, 1.47233e-06, 6.04285e-06, 0, 0
    7800, 1.43713e-06, 6.45588e-06, 0, 0
    7900, 1.33335e-06, 5.74203e-06, 0, 0
    8000, 1.31652e-06, 5.65413e-06, 0, 0
    8100, 1.2411e-06, 5.72196e-06, 0, 0
    8200, 1.19722e-06, 5.1698e-06, 0, 0
    8300, 1.1373e-06, 5.09224e-06, 0, 0
    8400, 1.08125e-06, 4.79009e-06, 0, 0
    8500, 1.0389e-06, 4.45485e-06, 0, 0
    8600, 9.79293e-07, 4.544e-06, 0, 0
    8700, 9.16013e-07, 3.82514e-06, 0, 0
    8800, 8.96974e-07, 4.07961e-06, 0, 0
    8900, 8.54474e-07, 3.78156e-06, 0, 0
    9000, 8.19928e-07, 3.63319e-06, 0, 0
    9100, 7.76256e-07, 3.6104e-06, 0, 0
    9200, 7.22124e-07, 3.01306e-06, 0, 0
    9300, 7.06155e-07, 3.27571e-06, 0, 0
    9400, 6.77601e-07, 2.9597e-06, 0, 0
    9500, 6.46923e-07, 2.93327e-06, 0, 0
    9600, 6.15801e-07, 2.85945e-06, 0, 0
    9700, 5.90075e-07, 2.63876e-06, 0, 0
    9800, 5.60032e-07, 2.61969e-06, 0, 0
    9900, 5.36813e-07, 2.32513e-06, 0, 0
    10000, 5.08536e-07, 2.39053e-06, 0, 0
    10100, 4.87862e-07, 2.12303e-06, 0, 0
    10200, 4.64728e-07, 2.16712e-06, 0, 0
    10300, 4.32037e-07, 1.84343e-06, 0, 0
    10400, 4.23969e-07, 1.96778e-06, 0, 0
    10500, 3.94364e-07, 1.69465e-06, 0, 0
    10600, 3.86604e-07, 1.79001e-06, 0, 0
    10700, 3.70183e-07, 1.67112e-06, 0, 0
    10800, 3.52959e-07, 1.6127e-06, 0, 0
    10900, 3.37246e-07, 1.53205e-06, 0, 0
    11000, 3.22099e-07, 1.46264e-06, 0, 0
    11100, 3.07637e-07, 1.39574e-06, 0, 0
    11200, 2.93839e-07, 1.33184e-06, 0, 0
    11300, 2.80655e-07, 1.27111e-06, 0, 0
    11400, 2.68057e-07, 1.21323e-06, 0, 0
    11500, 2.56022e-07, 1.15808e-06, 0, 0
    11600, 2.44536e-07, 1.10552e-06, 0, 0
    11700, 2.33576e-07, 1.05543e-06, 0, 0
    11800, 2.23105e-07, 1.00767e-06, 0, 0
    11900, 2.1311e-07, 9.62139e-07, 0, 0
    12000, 2.03566e-07, 9.18721e-07, 0, 0
    12100, 1.94467e-07, 8.77314e-07, 0, 0
    12200, 1.85781e-07, 8.37818e-07, 0, 0
    12300, 1.77483e-07, 8.00142e-07, 0, 0
    12400, 1.69554e-07, 7.64196e-07, 0, 0
    12500, 1.61983e-07, 7.29898e-07, 0, 0
    12600, 1.54754e-07, 6.97168e-07, 0, 0
    12700, 1.47846e-07, 6.65932e-07, 0, 0
    12800, 1.41244e-07, 6.36119e-07, 0, 0
    12900, 1.34936e-07, 6.0766e-07, 0, 0
    13000, 1.28913e-07, 5.80492e-07, 0, 0
    13100, 1.23158e-07, 5.54757e-07, 0, 0
    13200, 1.1766e-07, 5.30214e-07, 0, 0
    13300, 1.12407e-07, 5.06768e-07, 0, 0
    13400, 1.07388e-07, 4.84369e-07, 0, 0
    13500, 1.02593e-07, 4.62968e-07, 0, 0
    13600, 9.80134e-08, 4.42519e-07, 0, 0
    13700, 9.36401e-08, 4.2298e-07, 0, 0
    13800, 8.94627e-08, 4.04308e-07, 0, 0
    13900, 8.54722e-08, 3.86464e-07, 0, 0
    14000, 8.16596e-08, 3.69411e-07, 0, 0
    14100, 7.80198e-08, 3.53114e-07, 0, 0
    14200, 7.4543e-08, 3.37537e-07, 0, 0
    14300, 7.12214e-08, 3.22649e-07, 0, 0
    14400, 6.80486e-08, 3.08419e-07, 0, 0
    14500, 6.50178e-08, 2.94817e-07, 0, 0
    14600, 6.21215e-08, 2.81816e-07, 0, 0
    14700, 5.93537e-08, 2.69388e-07, 0, 0
    14800, 5.67089e-08, 2.57508e-07, 0, 0
    14900, 5.41821e-08, 2.46151e-07, 0, 0
    15000, 5.17675e-08, 2.35295e-07, 0, 0
    15100, 4.94603e-08, 2.24917e-07, 0, 0
    15200, 4.72555e-08, 2.14996e-07, 0, 0
    15300, 4.5149e-08, 2.05512e-07, 0, 0
    15400, 4.31369e-08, 1.96445e-07, 0, 0
    15500, 4.12143e-08, 1.87778e-07, 0, 0
    15600, 3.9377e-08, 1.79491e-07, 0, 0
    15700, 3.76213e-08, 1.7157e-07, 0, 0
    15800, 3.59441e-08, 1.63996e-07, 0, 0
    15900, 3.43417e-08, 1.56756e-07, 0, 0
    16000, 3.28105e-08, 1.49835e-07, 0, 0
    16100, 3.13473e-08, 1.43217e-07, 0, 0
    16200, 2.99491e-08, 1.36891e-07, 0, 0
    16300, 2.86131e-08, 1.30844e-07, 0, 0
    16400, 2.734e-08, 1.25062e-07, 0, 0
    16500, 2.61238e-08, 1.19535e-07, 0, 0
    16600, 2.49615e-08, 1.14251e-07, 0, 0
    16700, 2.38366e-08, 1.09207e-07, 0, 0
    16800, 2.27101e-08, 1.04362e-07, 0, 0
    Both residuals have converged
    16894, 2.17547e-08, 9.99789e-08, 0, 0

Moving the mesh to the deformed configuration

Max sigmaEq (von Mises stress) = 59942.6
ExecutionTime = 15.24 s  ClockTime = 15 s

Jacobian determinant max. 1.0062 min. 0.993923

Time = 2

Evolving solid solver
Solving the updated Lagrangian form of the momentum equation for DD
    Corr, res, relRes, matRes, iters
    100, 1.46987e-05, 0.0108237, 0, 0
    200, 9.55997e-06, 0.00559075, 0, 0
    300, 8.55372e-06, 0.00264456, 0, 0
    400, 7.70174e-06, 0.00170983, 0, 0
    500, 6.97389e-06, 0.00127546, 0, 0
    600, 6.53137e-06, 0.000971301, 0, 0
    700, 6.16483e-06, 0.000757093, 0, 0
    800, 5.85987e-06, 0.000605379, 0, 0
    900, 5.58211e-06, 0.000492254, 0, 0
    1000, 5.32755e-06, 0.000410371, 0, 0
    1100, 5.09366e-06, 0.000349849, 0, 0
    1200, 4.87809e-06, 0.00030105, 0, 0
    1300, 4.66452e-06, 0.000260951, 0, 0
    1400, 4.45506e-06, 0.000227658, 0, 0
    1500, 4.25564e-06, 0.000199645, 0, 0
    1600, 4.06661e-06, 0.000175877, 0, 0
    1700, 3.89612e-06, 0.000155781, 0, 0
    1800, 3.71868e-06, 0.000138812, 0, 0
    1900, 3.55783e-06, 0.000124303, 0, 0
    2000, 3.40044e-06, 0.000111365, 0, 0
    2100, 3.25716e-06, 0.000100121, 0, 0
    2200, 3.10301e-06, 8.97595e-05, 0, 0
    2300, 2.95152e-06, 9.94403e-05, 0, 0
    2400, 2.81104e-06, 9.15041e-05, 0, 0
    2500, 2.67746e-06, 8.26956e-05, 0, 0
    2600, 2.54804e-06, 7.46259e-05, 0, 0
    2700, 2.42327e-06, 6.76072e-05, 0, 0
    2800, 2.35395e-06, 6.07434e-05, 0, 0
    2900, 2.23276e-06, 5.27491e-05, 0, 0
    3000, 2.09527e-06, 5.09637e-05, 0, 0
    3100, 1.99458e-06, 4.98612e-05, 0, 0
    3200, 1.9047e-06, 4.59557e-05, 0, 0
    3300, 1.76384e-06, 4.05493e-05, 0, 0
    3400, 1.70898e-06, 4.12391e-05, 0, 0
    3500, 1.62222e-06, 3.94239e-05, 0, 0
    3600, 1.53692e-06, 3.78071e-05, 0, 0
    3700, 1.45571e-06, 3.62654e-05, 0, 0
    3800, 1.37875e-06, 3.47777e-05, 0, 0
    3900, 1.30616e-06, 3.33156e-05, 0, 0
    4000, 1.23789e-06, 3.20983e-05, 0, 0
    4100, 1.17268e-06, 3.07744e-05, 0, 0
    4200, 1.11006e-06, 2.95849e-05, 0, 0
    4300, 1.05187e-06, 2.83179e-05, 0, 0
    4400, 9.98979e-07, 2.70928e-05, 0, 0
    4500, 9.47048e-07, 2.59392e-05, 0, 0
    4600, 8.97232e-07, 2.50183e-05, 0, 0
    4700, 8.49795e-07, 2.39249e-05, 0, 0
    4800, 8.04978e-07, 2.28773e-05, 0, 0
    4900, 7.62624e-07, 2.18708e-05, 0, 0
    5000, 7.22542e-07, 2.09047e-05, 0, 0
    5100, 6.84646e-07, 1.9977e-05, 0, 0
    5200, 6.48794e-07, 1.90863e-05, 0, 0
    5300, 6.14823e-07, 1.82324e-05, 0, 0
    5400, 5.82674e-07, 1.74135e-05, 0, 0
    5500, 5.5223e-07, 1.66368e-05, 0, 0
    5600, 5.23393e-07, 1.59063e-05, 0, 0
    5700, 4.9606e-07, 1.52045e-05, 0, 0
    5800, 4.70061e-07, 1.45281e-05, 0, 0
    5900, 4.45565e-07, 1.38824e-05, 0, 0
    6000, 4.21984e-07, 1.32113e-05, 0, 0
    6100, 3.99841e-07, 1.26752e-05, 0, 0
    6200, 3.7889e-07, 1.21093e-05, 0, 0
    6300, 3.59305e-07, 1.15088e-05, 0, 0
    6400, 3.40409e-07, 1.10437e-05, 0, 0
    6500, 3.22893e-07, 1.0481e-05, 0, 0
    6600, 3.06032e-07, 1.00045e-05, 0, 0
    6700, 2.90038e-07, 9.54917e-06, 0, 0
    6800, 2.75003e-07, 9.15917e-06, 0, 0
    6900, 2.60568e-07, 8.73932e-06, 0, 0
    7000, 2.4689e-07, 8.3361e-06, 0, 0
    7100, 2.33933e-07, 7.95058e-06, 0, 0
    7200, 2.19347e-07, 7.55914e-06, 0, 0
    7300, 2.0749e-07, 7.20859e-06, 0, 0
    7400, 1.96471e-07, 6.87531e-06, 0, 0
    7500, 1.86063e-07, 6.55647e-06, 0, 0
    7600, 1.7622e-07, 6.25179e-06, 0, 0
    7700, 1.66908e-07, 5.96071e-06, 0, 0
    7800, 1.58097e-07, 5.68571e-06, 0, 0
    7900, 1.49759e-07, 5.4231e-06, 0, 0
    8000, 1.41868e-07, 5.172e-06, 0, 0
    8100, 1.34397e-07, 4.93196e-06, 0, 0
    8200, 1.27321e-07, 4.70252e-06, 0, 0
    8300, 1.20621e-07, 4.48326e-06, 0, 0
    8400, 1.14275e-07, 4.27378e-06, 0, 0
    8500, 1.08266e-07, 4.07366e-06, 0, 0
    8600, 1.02575e-07, 3.88253e-06, 0, 0
    8700, 9.71841e-08, 3.70001e-06, 0, 0
    8800, 9.20803e-08, 3.52568e-06, 0, 0
    8900, 8.72452e-08, 3.35931e-06, 0, 0
    9000, 8.26644e-08, 3.20061e-06, 0, 0
    9100, 7.83296e-08, 3.04899e-06, 0, 0
    9200, 7.42244e-08, 2.90438e-06, 0, 0
    9300, 7.03351e-08, 2.76645e-06, 0, 0
    9400, 6.66513e-08, 2.63485e-06, 0, 0
    9500, 6.31618e-08, 2.50932e-06, 0, 0
    9600, 5.98564e-08, 2.3896e-06, 0, 0
    9700, 5.6726e-08, 2.27544e-06, 0, 0
    9800, 5.37605e-08, 2.16659e-06, 0, 0
    9900, 5.09514e-08, 2.06282e-06, 0, 0
    10000, 4.82908e-08, 1.9639e-06, 0, 0
    10100, 4.57704e-08, 1.86962e-06, 0, 0
    10200, 4.33827e-08, 1.77977e-06, 0, 0
    10300, 4.11207e-08, 1.69414e-06, 0, 0
    10400, 3.89786e-08, 1.61255e-06, 0, 0
    10500, 3.69492e-08, 1.53482e-06, 0, 0
    10600, 3.50268e-08, 1.46077e-06, 0, 0
    10700, 3.32062e-08, 1.39022e-06, 0, 0
    10800, 3.14816e-08, 1.32303e-06, 0, 0
    10900, 2.98477e-08, 1.25904e-06, 0, 0
    11000, 2.82996e-08, 1.1981e-06, 0, 0
    11100, 2.6833e-08, 1.14006e-06, 0, 0
    11200, 2.54435e-08, 1.08481e-06, 0, 0
    11300, 2.41271e-08, 1.03219e-06, 0, 0
    11400, 2.29268e-08, 9.79352e-07, 0, 0
    11500, 2.17703e-08, 9.32003e-07, 0, 0
    11600, 2.06508e-08, 8.86916e-07, 0, 0
    11700, 1.95955e-08, 8.43969e-07, 0, 0
    11800, 1.85857e-08, 8.03079e-07, 0, 0
    11900, 1.76323e-08, 7.6417e-07, 0, 0
    12000, 1.67296e-08, 7.27133e-07, 0, 0
    12100, 1.58743e-08, 6.91877e-07, 0, 0
    12200, 1.50637e-08, 6.58317e-07, 0, 0
    12300, 1.42959e-08, 6.26373e-07, 0, 0
    12400, 1.35681e-08, 5.95968e-07, 0, 0
    12500, 1.28602e-08, 5.64496e-07, 0, 0
    12600, 1.22075e-08, 5.37475e-07, 0, 0
    12700, 1.15922e-08, 5.11612e-07, 0, 0
    12800, 1.1009e-08, 4.86963e-07, 0, 0
    12900, 1.04555e-08, 4.63481e-07, 0, 0
    The solver residual has converged
    12987, 9.99694e-09, 4.43962e-07, 0, 0

Moving the mesh to the deformed configuration

Max sigmaEq (von Mises stress) = 128756
ExecutionTime = 26.68 s  ClockTime = 26 s

Jacobian determinant max. 1.00805 min. 0.990648

Time = 3

Evolving solid solver
Solving the updated Lagrangian form of the momentum equation for DD
    Corr, res, relRes, matRes, iters
    100, 4.82087e-05, 0.0153267, 0, 0
    200, 2.83653e-05, 0.0198655, 0, 0
    300, 9.55307e-06, 0.00167499, 0, 0
    400, 5.52376e-06, 0.00151367, 0, 0
    500, 3.21546e-06, 0.00157272, 0, 0
    600, 2.8431e-06, 0.000728321, 0, 0
    700, 2.4535e-06, 0.000519851, 0, 0
    800, 2.17493e-06, 0.00048676, 0, 0
    900, 2.0068e-06, 0.000406855, 0, 0
    1000, 1.88163e-06, 0.000330628, 0, 0
    1100, 1.77162e-06, 0.000274284, 0, 0
    1200, 1.67368e-06, 0.000229321, 0, 0
    1300, 1.57777e-06, 0.000192005, 0, 0
    1400, 1.48741e-06, 0.000162239, 0, 0
    1500, 1.39978e-06, 0.000137292, 0, 0
    1600, 1.31771e-06, 0.000116454, 0, 0
    1700, 1.24075e-06, 9.92128e-05, 0, 0
    1800, 1.17041e-06, 8.34062e-05, 0, 0
    1900, 1.10436e-06, 7.2833e-05, 0, 0
    2000, 1.04507e-06, 6.45334e-05, 0, 0
    2100, 9.84494e-07, 6.19276e-05, 0, 0
    2200, 9.15326e-07, 6.32952e-05, 0, 0
    2300, 8.61873e-07, 6.00673e-05, 0, 0
    2400, 8.09991e-07, 5.76693e-05, 0, 0
    2500, 7.63527e-07, 5.58686e-05, 0, 0
    2600, 7.18746e-07, 5.08915e-05, 0, 0
    2700, 6.81212e-07, 4.85098e-05, 0, 0
    2800, 6.40379e-07, 4.69676e-05, 0, 0
    2900, 6.02964e-07, 4.41999e-05, 0, 0
    3000, 5.68848e-07, 4.16924e-05, 0, 0
    3100, 5.32148e-07, 3.94856e-05, 0, 0
    3200, 5.00711e-07, 3.72499e-05, 0, 0
    3300, 4.71321e-07, 3.50901e-05, 0, 0
    3400, 4.44099e-07, 3.3059e-05, 0, 0
    3500, 4.18474e-07, 3.11421e-05, 0, 0
    3600, 3.93916e-07, 2.93265e-05, 0, 0
    3700, 3.7147e-07, 2.76093e-05, 0, 0
    3800, 3.5027e-07, 2.6001e-05, 0, 0
    3900, 3.30212e-07, 2.44816e-05, 0, 0
    4000, 3.11233e-07, 2.30493e-05, 0, 0
    4100, 2.93292e-07, 2.17e-05, 0, 0
    4200, 2.76393e-07, 2.04292e-05, 0, 0
    4300, 2.60269e-07, 1.91487e-05, 0, 0
    4400, 2.45847e-07, 1.80492e-05, 0, 0
--> FOAM Warning : 
    From function Foam::SutherlandHodgman::lineSegmentIntersection()
    in file algorithms/polygon/clipping/SutherlandHodgman.C at line 105
    ua does not match with ub: delta: 1.7853e-07 : epsilon: 8.97963e-11
--> FOAM Warning : 
    From function Foam::SutherlandHodgman::lineSegmentIntersection()
    in file algorithms/polygon/clipping/SutherlandHodgman.C at line 122
    ub does not match with ua: delta: 8.56077e-08 : epsilon: 9.03529e-11
--> FOAM Warning : 
    From function Foam::SutherlandHodgman::lineSegmentIntersection()
    in file algorithms/polygon/clipping/SutherlandHodgman.C at line 122
    ub does not match with ua: delta: 4.59639e-08 : epsilon: 9.19205e-11
--> FOAM Warning : 
    From function Foam::SutherlandHodgman::lineSegmentIntersection()
    in file algorithms/polygon/clipping/SutherlandHodgman.C at line 122
    ub does not match with ua: delta: 4.0697e-07 : epsilon: 9.26522e-11
--> FOAM Warning : 
    From function Foam::SutherlandHodgman::lineSegmentIntersection()
    in file algorithms/polygon/clipping/SutherlandHodgman.C at line 122
    ub does not match with ua: delta: 2.03447e-07 : epsilon: 9.27433e-11
--> FOAM Warning : 
    From function Foam::SutherlandHodgman::lineSegmentIntersection()
    in file algorithms/polygon/clipping/SutherlandHodgman.C at line 122
    ub does not match with ua: delta: 9.2107e-08 : epsilon: 9.39214e-11
--> FOAM Warning : 
    From function Foam::SutherlandHodgman::lineSegmentIntersection()
    in file algorithms/polygon/clipping/SutherlandHodgman.C at line 105
    ua does not match with ub: delta: 9.2665e-07 : epsilon: 9.40115e-11
--> FOAM Warning : 
    From function Foam::SutherlandHodgman::lineSegmentIntersection()
    in file algorithms/polygon/clipping/SutherlandHodgman.C at line 122
    ub does not match with ua: delta: 3.41974e-07 : epsilon: 9.41916e-11
--> FOAM Warning : 
    From function Foam::SutherlandHodgman::lineSegmentIntersection()
    in file algorithms/polygon/clipping/SutherlandHodgman.C at line 122
    ub does not match with ua: delta: 2.75001e-07 : epsilon: 9.58908e-11
    4500, 2.31758e-07, 1.70074e-05, 0, 0
--> FOAM Warning : 
    From function Foam::SutherlandHodgman::lineSegmentIntersection()
    in file algorithms/polygon/clipping/SutherlandHodgman.C at line 105
    ua does not match with ub: delta: 4.19517e-09 : epsilon: 9.75695e-11
--> FOAM Warning : 
    From function Foam::SutherlandHodgman::lineSegmentIntersection()
    in file algorithms/polygon/clipping/SutherlandHodgman.C at line 105
    ua does not match with ub: delta: 7.644e-08 : epsilon: 1.00517e-10
--> FOAM Warning : 
    From function Foam::SutherlandHodgman::lineSegmentIntersection()
    in file algorithms/polygon/clipping/SutherlandHodgman.C at line 122
    ub does not match with ua: delta: 2.23861e-07 : epsilon: 1.04811e-10
    4600, 2.18364e-07, 1.60171e-05, 0, 0
--> FOAM Warning : 
    From function Foam::SutherlandHodgman::lineSegmentIntersection()
    in file algorithms/polygon/clipping/SutherlandHodgman.C at line 122
    ub does not match with ua: delta: 1.93479e-07 : epsilon: 1.05307e-10
--> FOAM Warning : 
    From function Foam::SutherlandHodgman::lineSegmentIntersection()
    in file algorithms/polygon/clipping/SutherlandHodgman.C at line 122
    ub does not match with ua: delta: 1.02498e-08 : epsilon: 1.11871e-10
    4700, 2.05682e-07, 1.5081e-05, 0, 0
    4800, 1.93303e-07, 1.4234e-05, 0, 0
    4900, 1.81701e-07, 1.35217e-05, 0, 0
    5000, 1.71221e-07, 1.28069e-05, 0, 0
    5100, 1.61286e-07, 1.18052e-05, 0, 0
    5200, 1.52251e-07, 1.11486e-05, 0, 0
    5300, 1.4352e-07, 1.05176e-05, 0, 0
    5400, 1.34545e-07, 9.73638e-06, 0, 0
    5500, 1.25152e-07, 8.87786e-06, 0, 0
    5600, 1.17189e-07, 8.34696e-06, 0, 0
    5700, 1.0942e-07, 7.75272e-06, 0, 0
    5800, 1.02777e-07, 7.28979e-06, 0, 0
    5900, 9.65341e-08, 6.85747e-06, 0, 0
    6000, 9.08986e-08, 6.44684e-06, 0, 0
    6100, 8.5214e-08, 6.05163e-06, 0, 0
    6200, 8.00603e-08, 5.68626e-06, 0, 0
    6300, 7.51936e-08, 5.34377e-06, 0, 0
    6400, 7.061e-08, 5.02217e-06, 0, 0
    6500, 6.63539e-08, 4.72045e-06, 0, 0
    6600, 6.23436e-08, 4.44114e-06, 0, 0
    6700, 5.85668e-08, 4.17846e-06, 0, 0
    6800, 5.50127e-08, 3.93139e-06, 0, 0
    6900, 5.16666e-08, 3.699e-06, 0, 0
    7000, 4.85197e-08, 3.48039e-06, 0, 0
    7100, 4.55312e-08, 3.27301e-06, 0, 0
    7200, 4.27706e-08, 3.08151e-06, 0, 0
    7300, 4.01415e-08, 2.89794e-06, 0, 0
    7400, 3.7684e-08, 2.72683e-06, 0, 0
    7500, 3.53751e-08, 2.56583e-06, 0, 0
    7600, 3.32036e-08, 2.41432e-06, 0, 0
    7700, 3.11618e-08, 2.27174e-06, 0, 0
    7800, 2.92424e-08, 2.13754e-06, 0, 0
    7900, 2.74498e-08, 2.01123e-06, 0, 0
    8000, 2.57723e-08, 1.89234e-06, 0, 0
    8100, 2.41953e-08, 1.78045e-06, 0, 0
    8200, 2.27125e-08, 1.67513e-06, 0, 0
    8300, 2.13184e-08, 1.57601e-06, 0, 0
    8400, 2.0009e-08, 1.48272e-06, 0, 0
    8500, 1.87784e-08, 1.39493e-06, 0, 0
    8600, 1.7622e-08, 1.31231e-06, 0, 0
    8700, 1.65509e-08, 1.23576e-06, 0, 0
    8800, 1.55445e-08, 1.16156e-06, 0, 0
    8900, 1.45762e-08, 1.09273e-06, 0, 0
    9000, 1.36713e-08, 1.02798e-06, 0, 0
    9100, 1.28232e-08, 9.67132e-07, 0, 0
    9200, 1.20281e-08, 9.12123e-07, 0, 0
    9300, 1.12799e-08, 8.56588e-07, 0, 0
    9400, 1.06005e-08, 8.03616e-07, 0, 0
    The solver residual has converged
    9471, 9.99596e-09, 8.93486e-07, 0, 0

Moving the mesh to the deformed configuration

Max sigmaEq (von Mises stress) = 204295
ExecutionTime = 35.05 s  ClockTime = 35 s

Jacobian determinant max. 1.00733 min. 0.992803

Time = 4

Evolving solid solver
Solving the updated Lagrangian form of the momentum equation for DD
    Corr, res, relRes, matRes, iters
    100, 5.57901e-05, 0.00403146, 0, 0
    200, 8.94228e-05, 0.0217752, 0, 0
    300, 3.56824e-05, 0.00918021, 0, 0
    400, 1.40429e-05, 0.00381221, 0, 0
    500, 6.99261e-06, 0.00130017, 0, 0
    600, 5.39482e-06, 0.00103873, 0, 0
    700, 4.16957e-06, 0.000483348, 0, 0
    800, 3.65762e-06, 0.000139617, 0, 0
    900, 3.23914e-06, 0.000112173, 0, 0
    1000, 3.06171e-06, 8.55299e-05, 0, 0
    1100, 2.84931e-06, 7.78931e-05, 0, 0
    1200, 2.67307e-06, 7.03e-05, 0, 0
    1300, 2.52273e-06, 6.50974e-05, 0, 0
    1400, 2.37763e-06, 6.0257e-05, 0, 0
    1500, 2.25051e-06, 5.63649e-05, 0, 0
    1600, 2.12409e-06, 5.30127e-05, 0, 0
    1700, 2.00977e-06, 5.12931e-05, 0, 0
    1800, 1.89994e-06, 4.83925e-05, 0, 0
    1900, 1.80252e-06, 4.41164e-05, 0, 0
    2000, 1.70627e-06, 4.16055e-05, 0, 0
    2100, 1.60429e-06, 3.97901e-05, 0, 0
    2200, 1.51855e-06, 3.7188e-05, 0, 0
    2300, 1.43951e-06, 3.53909e-05, 0, 0
    2400, 1.36564e-06, 3.33829e-05, 0, 0
    2500, 1.29099e-06, 3.16033e-05, 0, 0
    2600, 1.23237e-06, 2.97858e-05, 0, 0
    2700, 1.16081e-06, 2.85557e-05, 0, 0
    2800, 1.11022e-06, 2.73139e-05, 0, 0
    2900, 1.05231e-06, 2.61845e-05, 0, 0
    3000, 9.93388e-07, 2.44483e-05, 0, 0
    3100, 9.48469e-07, 2.46146e-05, 0, 0
    3200, 8.95281e-07, 2.32759e-05, 0, 0
    3300, 8.43388e-07, 2.08905e-05, 0, 0
    3400, 7.97625e-07, 2.07654e-05, 0, 0
    3500, 7.61198e-07, 2.00852e-05, 0, 0
    3600, 7.2421e-07, 1.88659e-05, 0, 0
    3700, 6.87136e-07, 1.7934e-05, 0, 0
    3800, 6.47412e-07, 1.69407e-05, 0, 0
    3900, 6.17614e-07, 1.62736e-05, 0, 0
    4000, 5.85716e-07, 1.54273e-05, 0, 0
    4100, 5.55754e-07, 1.47133e-05, 0, 0
    4200, 5.2803e-07, 1.40807e-05, 0, 0
    4300, 4.99524e-07, 1.34913e-05, 0, 0
    4400, 4.71615e-07, 1.2677e-05, 0, 0
    4500, 4.51421e-07, 1.22187e-05, 0, 0
    4600, 4.25464e-07, 1.15162e-05, 0, 0
    4700, 4.03373e-07, 1.11115e-05, 0, 0
    4800, 3.83475e-07, 1.05063e-05, 0, 0
    4900, 3.6405e-07, 1.0036e-05, 0, 0
    5000, 3.45631e-07, 9.58256e-06, 0, 0
    5100, 3.28196e-07, 9.14985e-06, 0, 0
    5200, 3.11671e-07, 8.73692e-06, 0, 0
    5300, 2.96004e-07, 8.3427e-06, 0, 0
    5400, 2.81141e-07, 7.9663e-06, 0, 0
    5500, 2.67043e-07, 7.60692e-06, 0, 0
    5600, 2.53674e-07, 7.26908e-06, 0, 0
    5700, 2.40985e-07, 6.94891e-06, 0, 0
    5800, 2.2895e-07, 6.64269e-06, 0, 0
    5900, 2.1754e-07, 6.34982e-06, 0, 0
    6000, 2.06754e-07, 6.06815e-06, 0, 0
    6100, 1.96501e-07, 5.80047e-06, 0, 0
    6200, 1.86617e-07, 5.575e-06, 0, 0
    6300, 1.77563e-07, 5.33362e-06, 0, 0
    6400, 1.68785e-07, 5.0621e-06, 0, 0
    6500, 1.6045e-07, 4.83739e-06, 0, 0
    6600, 1.52556e-07, 4.65423e-06, 0, 0
    6700, 1.45068e-07, 4.44725e-06, 0, 0
    6800, 1.37843e-07, 4.24178e-06, 0, 0
    6900, 1.31195e-07, 4.05912e-06, 0, 0
    7000, 1.24776e-07, 3.87718e-06, 0, 0
    7100, 1.18687e-07, 3.70375e-06, 0, 0
    7200, 1.1287e-07, 3.53793e-06, 0, 0
    7300, 1.07349e-07, 3.37991e-06, 0, 0
    7400, 1.02102e-07, 3.22903e-06, 0, 0
    7500, 9.71152e-08, 3.08489e-06, 0, 0
    7600, 9.2376e-08, 2.94728e-06, 0, 0
    7700, 8.78773e-08, 2.81563e-06, 0, 0
    7800, 8.35971e-08, 2.69008e-06, 0, 0
    7900, 7.95335e-08, 2.56982e-06, 0, 0
    8000, 7.56653e-08, 2.4551e-06, 0, 0
    8100, 7.1987e-08, 2.34659e-06, 0, 0
    8200, 6.84921e-08, 2.24302e-06, 0, 0
    8300, 6.51648e-08, 2.14414e-06, 0, 0
    8400, 6.20016e-08, 2.04957e-06, 0, 0
    8500, 5.89994e-08, 1.95896e-06, 0, 0
    8600, 5.61407e-08, 1.87247e-06, 0, 0
    8700, 5.34238e-08, 1.78965e-06, 0, 0
    8800, 5.0838e-08, 1.71051e-06, 0, 0
    8900, 4.83783e-08, 1.63482e-06, 0, 0
    9000, 4.60383e-08, 1.56246e-06, 0, 0
    9100, 4.38122e-08, 1.49326e-06, 0, 0
    9200, 4.16944e-08, 1.4271e-06, 0, 0
    9300, 3.96817e-08, 1.36384e-06, 0, 0
    9400, 3.77687e-08, 1.30336e-06, 0, 0
    9500, 3.59476e-08, 1.24562e-06, 0, 0
    9600, 3.42172e-08, 1.1903e-06, 0, 0
    9700, 3.257e-08, 1.13745e-06, 0, 0
    9800, 3.10031e-08, 1.08692e-06, 0, 0
    9900, 2.95119e-08, 1.03861e-06, 0, 0
    10000, 2.80927e-08, 9.9244e-07, 0, 0
    10100, 2.67424e-08, 9.48301e-07, 0, 0
    10200, 2.54574e-08, 9.06109e-07, 0, 0
    10300, 2.42343e-08, 8.6578e-07, 0, 0
    10400, 2.30703e-08, 8.27232e-07, 0, 0
    10500, 2.19625e-08, 7.90387e-07, 0, 0
    10600, 2.09081e-08, 7.55171e-07, 0, 0
    10700, 1.99048e-08, 7.21513e-07, 0, 0
    10800, 1.895e-08, 6.89344e-07, 0, 0
    10900, 1.80412e-08, 6.586e-07, 0, 0
    11000, 1.71768e-08, 6.29201e-07, 0, 0
    11100, 1.63592e-08, 6.01142e-07, 0, 0
    11200, 1.5587e-08, 5.75156e-07, 0, 0
    11300, 1.48341e-08, 5.49227e-07, 0, 0
    11400, 1.412e-08, 5.24527e-07, 0, 0
    11500, 1.34671e-08, 4.98088e-07, 0, 0
    11600, 1.27974e-08, 4.74159e-07, 0, 0
    11700, 1.22213e-08, 4.55243e-07, 0, 0
    11800, 1.16491e-08, 4.34707e-07, 0, 0
    11900, 1.1094e-08, 4.15394e-07, 0, 0
    12000, 1.05656e-08, 3.9693e-07, 0, 0
    12100, 1.00395e-08, 3.79375e-07, 0, 0
    The solver residual has converged
    12105, 9.99697e-09, 3.78544e-07, 0, 0

Moving the mesh to the deformed configuration

Max sigmaEq (von Mises stress) = 274142
ExecutionTime = 45.71 s  ClockTime = 46 s

Jacobian determinant max. 1.01047 min. 0.991537

Time = 5

Evolving solid solver
Solving the updated Lagrangian form of the momentum equation for DD
    Corr, res, relRes, matRes, iters
    100, 6.85706e-05, 0.00783685, 0, 0
    200, 3.45494e-05, 0.0022431, 0, 0
    300, 2.30438e-05, 0.00512951, 0, 0
    400, 1.28681e-05, 0.00163266, 0, 0
    500, 5.33186e-06, 0.000677551, 0, 0
    600, 4.77961e-06, 0.000579936, 0, 0
    700, 4.28235e-06, 0.000405376, 0, 0
    800, 3.45546e-06, 0.000118233, 0, 0
    900, 3.38308e-06, 9.7989e-05, 0, 0
    1000, 3.19184e-06, 7.87632e-05, 0, 0
    1100, 2.96723e-06, 7.36006e-05, 0, 0
    1200, 2.78335e-06, 6.89468e-05, 0, 0
    1300, 2.62907e-06, 6.50547e-05, 0, 0
    1400, 2.45626e-06, 6.0883e-05, 0, 0
    1500, 2.31556e-06, 5.7552e-05, 0, 0
    1600, 2.19058e-06, 5.44553e-05, 0, 0
    1700, 2.0698e-06, 5.15381e-05, 0, 0
    1800, 1.95778e-06, 4.88052e-05, 0, 0
    1900, 1.85244e-06, 4.62311e-05, 0, 0
    2000, 1.74818e-06, 4.40572e-05, 0, 0
    2100, 1.66044e-06, 3.51333e-05, 0, 0
    2200, 1.58518e-06, 4.08905e-05, 0, 0
    2300, 1.48756e-06, 3.85668e-05, 0, 0
    2400, 1.42452e-06, 3.92983e-05, 0, 0
    2500, 1.31614e-06, 2.96933e-05, 0, 0
    2600, 1.27243e-06, 3.27531e-05, 0, 0
    2700, 1.20055e-06, 3.22577e-05, 0, 0
    2800, 1.14078e-06, 3.08876e-05, 0, 0
    2900, 1.08339e-06, 2.92517e-05, 0, 0
    3000, 1.02573e-06, 2.7941e-05, 0, 0
    3100, 9.73311e-07, 2.66572e-05, 0, 0
    3200, 9.2227e-07, 2.54841e-05, 0, 0
    3300, 8.7529e-07, 2.43204e-05, 0, 0
    3400, 8.30619e-07, 2.30129e-05, 0, 0
    3500, 7.88307e-07, 2.20431e-05, 0, 0
    3600, 7.47928e-07, 2.09125e-05, 0, 0
    3700, 7.10419e-07, 1.99217e-05, 0, 0
    3800, 6.73463e-07, 1.88284e-05, 0, 0
    3900, 6.38e-07, 1.7993e-05, 0, 0
    4000, 6.05312e-07, 1.71553e-05, 0, 0
    4100, 5.74005e-07, 1.63639e-05, 0, 0
    4200, 5.44946e-07, 1.5567e-05, 0, 0
    4300, 5.1722e-07, 1.4813e-05, 0, 0
    4400, 4.91379e-07, 1.41816e-05, 0, 0
    4500, 4.65618e-07, 1.3553e-05, 0, 0
    4600, 4.42108e-07, 1.2844e-05, 0, 0
    4700, 4.22404e-07, 1.20216e-05, 0, 0
    4800, 3.96033e-07, 1.14137e-05, 0, 0
    4900, 3.71987e-07, 1.09347e-05, 0, 0
    5000, 3.61876e-07, 1.02244e-05, 0, 0
    5100, 3.43404e-07, 9.72482e-06, 0, 0
    5200, 3.17427e-07, 9.08091e-06, 0, 0
    5300, 3.09204e-07, 8.80134e-06, 0, 0
    5400, 2.88667e-07, 7.77901e-06, 0, 0
    5500, 2.74868e-07, 8.14809e-06, 0, 0
    5600, 2.61727e-07, 7.68859e-06, 0, 0
    5700, 2.48522e-07, 7.32539e-06, 0, 0
    5800, 2.35889e-07, 7.03188e-06, 0, 0
    5900, 2.23961e-07, 6.70454e-06, 0, 0
    6000, 2.12818e-07, 6.38905e-06, 0, 0
    6100, 2.02353e-07, 6.0936e-06, 0, 0
    6200, 1.92161e-07, 5.80719e-06, 0, 0
    6300, 1.82629e-07, 5.53744e-06, 0, 0
    6400, 1.71935e-07, 5.12469e-06, 0, 0
    6500, 1.63675e-07, 4.90567e-06, 0, 0
    6600, 1.55705e-07, 4.70493e-06, 0, 0
    6700, 1.48086e-07, 4.51028e-06, 0, 0
    6800, 1.41929e-07, 4.4159e-06, 0, 0
    6900, 1.34882e-07, 4.21194e-06, 0, 0
    7000, 1.2822e-07, 3.98498e-06, 0, 0
    7100, 1.21917e-07, 3.80327e-06, 0, 0
    7200, 1.15923e-07, 3.65533e-06, 0, 0
    7300, 1.10231e-07, 3.46564e-06, 0, 0
    7400, 1.0481e-07, 3.30896e-06, 0, 0
    7500, 9.96698e-08, 3.15922e-06, 0, 0
    7600, 9.47855e-08, 3.01624e-06, 0, 0
    7700, 9.0147e-08, 2.87983e-06, 0, 0
    7800, 8.57391e-08, 2.7497e-06, 0, 0
    7900, 8.15488e-08, 2.62556e-06, 0, 0
    8000, 7.75698e-08, 2.50177e-06, 0, 0
    8100, 7.38202e-08, 2.3885e-06, 0, 0
    8200, 7.02402e-08, 2.28168e-06, 0, 0
    8300, 6.67764e-08, 2.18616e-06, 0, 0
    8400, 6.36836e-08, 2.08159e-06, 0, 0
    8500, 6.05869e-08, 1.99138e-06, 0, 0
    8600, 5.74171e-08, 1.91047e-06, 0, 0
    8700, 5.4823e-08, 1.81843e-06, 0, 0
    8800, 5.2181e-08, 1.73811e-06, 0, 0
    8900, 4.94932e-08, 1.66526e-06, 0, 0
    9000, 4.71102e-08, 1.59129e-06, 0, 0
    9100, 4.4842e-08, 1.51991e-06, 0, 0
    9200, 4.27198e-08, 1.45205e-06, 0, 0
    9300, 4.07256e-08, 1.37366e-06, 0, 0
    9400, 3.87359e-08, 1.31147e-06, 0, 0
    9500, 3.68598e-08, 1.25248e-06, 0, 0
    9600, 3.5088e-08, 1.1984e-06, 0, 0
    9700, 3.34041e-08, 1.14482e-06, 0, 0
    9800, 3.18698e-08, 1.09941e-06, 0, 0
    9900, 3.04005e-08, 1.054e-06, 0, 0
    10000, 2.89676e-08, 1.00483e-06, 0, 0
    10100, 2.75857e-08, 9.59686e-07, 0, 0
    10200, 2.62636e-08, 9.16782e-07, 0, 0
    10300, 2.50041e-08, 8.76353e-07, 0, 0
    10400, 2.38049e-08, 8.37738e-07, 0, 0
    10500, 2.26641e-08, 8.00827e-07, 0, 0
    10600, 2.15783e-08, 7.65545e-07, 0, 0
    10700, 2.0545e-08, 7.31817e-07, 0, 0
    10800, 1.95615e-08, 6.99572e-07, 0, 0
    10900, 1.86255e-08, 6.68744e-07, 0, 0
    11000, 1.77345e-08, 6.3929e-07, 0, 0
    11100, 1.68873e-08, 6.11091e-07, 0, 0
    11200, 1.60807e-08, 5.84138e-07, 0, 0
    11300, 1.53022e-08, 5.57589e-07, 0, 0
    11400, 1.45837e-08, 5.34539e-07, 0, 0
    11500, 1.38865e-08, 5.10964e-07, 0, 0
    11600, 1.32245e-08, 4.88135e-07, 0, 0
    11700, 1.25711e-08, 4.65974e-07, 0, 0
    11800, 1.19879e-08, 4.44048e-07, 0, 0
    11900, 1.14216e-08, 4.25639e-07, 0, 0
    12000, 1.08705e-08, 4.07015e-07, 0, 0
    12100, 1.03509e-08, 3.89071e-07, 0, 0
    The solver residual has converged
    12171, 9.99909e-09, 3.76772e-07, 0, 0

Moving the mesh to the deformed configuration

Max sigmaEq (von Mises stress) = 339754
ExecutionTime = 56.55 s  ClockTime = 56 s

Jacobian determinant max. 1.00714 min. 0.988954

Time = 6

Evolving solid solver
Solving the updated Lagrangian form of the momentum equation for DD
    Corr, res, relRes, matRes, iters
    100, 8.09532e-05, 0.027645, 0, 0
    200, 2.76928e-05, 0.0104867, 0, 0
    300, 9.71484e-06, 0.00363216, 0, 0
    400, 6.62443e-06, 0.00242565, 0, 0
    500, 4.89307e-06, 0.0011652, 0, 0
    600, 3.67616e-06, 0.000260366, 0, 0
    700, 3.43562e-06, 0.00032334, 0, 0
    800, 3.30258e-06, 0.000286155, 0, 0
    900, 3.11241e-06, 0.000148329, 0, 0
    1000, 2.8496e-06, 9.38731e-05, 0, 0
    1100, 2.78176e-06, 8.56375e-05, 0, 0
    1200, 2.56332e-06, 8.2591e-05, 0, 0
    1300, 2.42535e-06, 7.46046e-05, 0, 0
    1400, 2.28885e-06, 6.96201e-05, 0, 0
    1500, 2.15983e-06, 6.66539e-05, 0, 0
    1600, 2.04015e-06, 6.36892e-05, 0, 0
    1700, 1.92872e-06, 6.07689e-05, 0, 0
    1800, 1.82464e-06, 5.79161e-05, 0, 0
    1900, 1.72679e-06, 5.51445e-05, 0, 0
    2000, 1.63467e-06, 5.2464e-05, 0, 0
    2100, 1.51505e-06, 5.45641e-05, 0, 0
    2200, 1.45803e-06, 4.75713e-05, 0, 0
    2300, 1.36569e-06, 5.00237e-05, 0, 0
    2400, 1.31376e-06, 4.24489e-05, 0, 0
    2500, 1.26138e-06, 4.39629e-05, 0, 0
    2600, 1.19065e-06, 3.87474e-05, 0, 0
    2700, 1.12418e-06, 3.73102e-05, 0, 0
    2800, 1.04592e-06, 3.78942e-05, 0, 0
    2900, 1.00701e-06, 3.32842e-05, 0, 0
    3000, 9.34945e-07, 3.43967e-05, 0, 0
    3100, 9.02305e-07, 2.96671e-05, 0, 0
    3200, 8.60246e-07, 2.7813e-05, 0, 0
    3300, 8.22824e-07, 2.96499e-05, 0, 0
    3400, 7.72387e-07, 2.50239e-05, 0, 0
    3500, 7.34567e-07, 2.44441e-05, 0, 0
    3600, 6.80532e-07, 2.47157e-05, 0, 0
    3700, 6.55887e-07, 2.14736e-05, 0, 0
    3800, 6.10993e-07, 2.21949e-05, 0, 0
    3900, 5.89409e-07, 1.94704e-05, 0, 0
    4000, 5.48773e-07, 1.99004e-05, 0, 0
    4100, 5.30057e-07, 1.72831e-05, 0, 0
    4200, 4.96778e-07, 1.68547e-05, 0, 0
    4300, 4.83851e-07, 1.52972e-05, 0, 0
    4400, 4.61215e-07, 1.44518e-05, 0, 0
    4500, 4.37582e-07, 1.39973e-05, 0, 0
    4600, 4.13545e-07, 1.35214e-05, 0, 0
    4700, 3.92552e-07, 1.23997e-05, 0, 0
    4800, 3.72295e-07, 1.1981e-05, 0, 0
    4900, 3.53107e-07, 1.10962e-05, 0, 0
    5000, 3.32786e-07, 1.04839e-05, 0, 0
    5100, 3.16252e-07, 9.93703e-06, 0, 0
    5200, 3.02347e-07, 1.0253e-05, 0, 0
    5300, 2.82842e-07, 9.38824e-06, 0, 0
    5400, 2.72749e-07, 9.28342e-06, 0, 0
    5500, 2.57397e-07, 8.39784e-06, 0, 0
    5600, 2.44644e-07, 7.59592e-06, 0, 0
    5700, 2.26807e-07, 7.43445e-06, 0, 0
    5800, 2.18446e-07, 7.20222e-06, 0, 0
    5900, 2.09729e-07, 6.47525e-06, 0, 0
    6000, 1.97048e-07, 6.35187e-06, 0, 0
    6100, 1.86718e-07, 6.20243e-06, 0, 0
    6200, 1.79303e-07, 5.5745e-06, 0, 0
    6300, 1.68534e-07, 5.49439e-06, 0, 0
    6400, 1.59949e-07, 5.44064e-06, 0, 0
    6500, 1.52279e-07, 5.016e-06, 0, 0
    6600, 1.45244e-07, 5.09008e-06, 0, 0
    6700, 1.34651e-07, 4.57205e-06, 0, 0
    6800, 1.30161e-07, 4.44086e-06, 0, 0
    6900, 1.23963e-07, 4.08603e-06, 0, 0
    7000, 1.19124e-07, 3.88756e-06, 0, 0
    7100, 1.11276e-07, 3.76817e-06, 0, 0
    7200, 1.05732e-07, 3.68186e-06, 0, 0
    7300, 1.0072e-07, 3.4169e-06, 0, 0
    7400, 9.58189e-08, 3.19467e-06, 0, 0
    7500, 9.12626e-08, 2.99672e-06, 0, 0
    7600, 8.42723e-08, 3.27484e-06, 0, 0
    7700, 8.20657e-08, 2.78412e-06, 0, 0
    7800, 7.82642e-08, 2.75411e-06, 0, 0
    7900, 7.40048e-08, 2.63179e-06, 0, 0
    8000, 7.01677e-08, 2.49752e-06, 0, 0
    8100, 6.66117e-08, 2.36965e-06, 0, 0
    8200, 6.32585e-08, 2.25596e-06, 0, 0
    8300, 6.01846e-08, 2.12602e-06, 0, 0
    8400, 5.7558e-08, 2.01515e-06, 0, 0
    8500, 5.47756e-08, 1.90958e-06, 0, 0
    8600, 5.20754e-08, 1.8189e-06, 0, 0
    8700, 4.95005e-08, 1.73271e-06, 0, 0
    8800, 4.7049e-08, 1.65066e-06, 0, 0
    8900, 4.47159e-08, 1.57286e-06, 0, 0
    9000, 4.24978e-08, 1.49891e-06, 0, 0
    9100, 4.03911e-08, 1.42849e-06, 0, 0
    9200, 3.83897e-08, 1.36164e-06, 0, 0
    9300, 3.64931e-08, 1.29805e-06, 0, 0
    9400, 3.46908e-08, 1.23755e-06, 0, 0
    9500, 3.29786e-08, 1.17999e-06, 0, 0
    9600, 3.13513e-08, 1.12521e-06, 0, 0
    9700, 2.98044e-08, 1.07304e-06, 0, 0
    9800, 2.83343e-08, 1.02339e-06, 0, 0
    9900, 2.69378e-08, 9.76749e-07, 0, 0
    10000, 2.56106e-08, 9.32449e-07, 0, 0
    10100, 2.43496e-08, 8.90206e-07, 0, 0
    10200, 2.2878e-08, 8.40478e-07, 0, 0
    10300, 2.16529e-08, 8.02837e-07, 0, 0
    10400, 2.0812e-08, 7.6704e-07, 0, 0
    10500, 1.96186e-08, 7.42547e-07, 0, 0
    10600, 1.8562e-08, 7.01461e-07, 0, 0
    10700, 1.76172e-08, 6.70243e-07, 0, 0
    10800, 1.67437e-08, 6.40494e-07, 0, 0
    10900, 1.59114e-08, 6.12116e-07, 0, 0
    11000, 1.51219e-08, 5.84977e-07, 0, 0
    11100, 1.46044e-08, 5.61193e-07, 0, 0
    11200, 1.374e-08, 5.32186e-07, 0, 0
    11300, 1.30962e-08, 5.07636e-07, 0, 0
    11400, 1.25257e-08, 4.9194e-07, 0, 0
    11500, 1.19295e-08, 4.69367e-07, 0, 0
    11600, 1.13346e-08, 4.48082e-07, 0, 0
    11700, 1.07539e-08, 4.29254e-07, 0, 0
    11800, 1.01392e-08, 4.04153e-07, 0, 0
    The solver residual has converged
    11829, 9.99368e-09, 3.98539e-07, 0, 0

Moving the mesh to the deformed configuration

Max sigmaEq (von Mises stress) = 404086
ExecutionTime = 66.99 s  ClockTime = 67 s

Jacobian determinant max. 1.00428 min. 0.990817

Time = 7

Evolving solid solver
Solving the updated Lagrangian form of the momentum equation for DD
    Corr, res, relRes, matRes, iters
    100, 0.000101111, 0.0114335, 0, 0
    200, 5.09602e-05, 0.00781286, 0, 0
    300, 9.86158e-06, 0.00310741, 0, 0
    400, 5.42787e-06, 0.00210965, 0, 0
    500, 3.47616e-06, 0.00136992, 0, 0
    600, 2.48102e-06, 0.000381204, 0, 0
    700, 2.6018e-06, 0.000636919, 0, 0
    800, 2.38266e-06, 0.000178964, 0, 0
    900, 2.055e-06, 0.00020166, 0, 0
    1000, 1.95734e-06, 9.93449e-05, 0, 0
    1100, 1.83413e-06, 7.96662e-05, 0, 0
    1200, 1.7701e-06, 7.22301e-05, 0, 0
    1300, 1.67999e-06, 6.89119e-05, 0, 0
    1400, 1.59368e-06, 6.54866e-05, 0, 0
    1500, 1.51235e-06, 6.22119e-05, 0, 0
    1600, 1.43534e-06, 5.9105e-05, 0, 0
    1700, 1.36098e-06, 5.63889e-05, 0, 0
    1800, 1.29337e-06, 5.34305e-05, 0, 0
    1900, 1.22823e-06, 5.07859e-05, 0, 0
    2000, 1.16634e-06, 4.82727e-05, 0, 0
    2100, 1.10824e-06, 4.55978e-05, 0, 0
    2200, 1.05234e-06, 4.3645e-05, 0, 0
    2300, 9.99704e-07, 4.14938e-05, 0, 0
    2400, 9.4953e-07, 3.9474e-05, 0, 0
    2500, 9.01758e-07, 3.76242e-05, 0, 0
    2600, 8.51013e-07, 3.57138e-05, 0, 0
    2700, 8.01479e-07, 3.54696e-05, 0, 0
    2800, 7.65773e-07, 3.53962e-05, 0, 0
    2900, 7.20682e-07, 3.28867e-05, 0, 0
    3000, 6.70421e-07, 2.68129e-05, 0, 0
    3100, 6.47164e-07, 2.94757e-05, 0, 0
    3200, 6.19253e-07, 2.74349e-05, 0, 0
    3300, 5.88533e-07, 2.59875e-05, 0, 0
    3400, 5.56999e-07, 2.50192e-05, 0, 0
    3500, 5.21542e-07, 2.38035e-05, 0, 0
    3600, 5.03633e-07, 2.36325e-05, 0, 0
    3700, 4.7218e-07, 2.1879e-05, 0, 0
    3800, 4.53463e-07, 2.13679e-05, 0, 0
    3900, 4.25764e-07, 2.00715e-05, 0, 0
    4000, 3.97266e-07, 1.81323e-05, 0, 0
    4100, 3.85659e-07, 1.8095e-05, 0, 0
    4200, 3.70776e-07, 1.72965e-05, 0, 0
    4300, 3.47452e-07, 1.60232e-05, 0, 0
    4400, 3.28027e-07, 1.47391e-05, 0, 0
    4500, 3.07085e-07, 1.37689e-05, 0, 0
    4600, 2.96133e-07, 1.3442e-05, 0, 0
    4700, 2.76733e-07, 1.27792e-05, 0, 0
    4800, 2.65914e-07, 1.20988e-05, 0, 0
    4900, 2.49565e-07, 1.16389e-05, 0, 0
    5000, 2.40571e-07, 1.09493e-05, 0, 0
    5100, 2.30228e-07, 1.07816e-05, 0, 0
    5200, 2.16454e-07, 9.99573e-06, 0, 0
    5300, 2.07617e-07, 9.67889e-06, 0, 0
    5400, 1.95442e-07, 9.18224e-06, 0, 0
    5500, 1.81806e-07, 9.00957e-06, 0, 0
    5600, 1.76991e-07, 8.33155e-06, 0, 0
    5700, 1.68885e-07, 6.65085e-06, 0, 0
    5800, 1.59462e-07, 7.48065e-06, 0, 0
    5900, 1.50689e-07, 6.87788e-06, 0, 0
    6000, 1.44726e-07, 6.72082e-06, 0, 0
    6100, 1.35993e-07, 6.45605e-06, 0, 0
    6200, 1.2624e-07, 6.38578e-06, 0, 0
    6300, 1.23459e-07, 5.8959e-06, 0, 0
    6400, 1.16641e-07, 5.41568e-06, 0, 0
    6500, 1.08534e-07, 5.40808e-06, 0, 0
    6600, 1.05707e-07, 5.12039e-06, 0, 0
    6700, 1.00185e-07, 4.57163e-06, 0, 0
    6800, 9.60158e-08, 4.43927e-06, 0, 0
    6900, 9.03348e-08, 4.33987e-06, 0, 0
    7000, 8.48621e-08, 4.25468e-06, 0, 0
    7100, 8.17683e-08, 3.91382e-06, 0, 0
    7200, 7.74303e-08, 3.7028e-06, 0, 0
    7300, 7.34628e-08, 3.43564e-06, 0, 0
    7400, 7.01056e-08, 3.40927e-06, 0, 0
    7500, 6.6488e-08, 3.19515e-06, 0, 0
    7600, 6.30306e-08, 2.96293e-06, 0, 0
    7700, 6.01884e-08, 2.96404e-06, 0, 0
    7800, 5.71652e-08, 2.6751e-06, 0, 0
    7900, 5.41233e-08, 2.5317e-06, 0, 0
    8000, 5.16803e-08, 2.55919e-06, 0, 0
    8100, 4.89705e-08, 2.40226e-06, 0, 0
    8200, 4.70391e-08, 2.08956e-06, 0, 0
    8300, 4.45181e-08, 2.18316e-06, 0, 0
    8400, 4.21058e-08, 2.08789e-06, 0, 0
    8500, 4.02406e-08, 1.88762e-06, 0, 0
    8600, 3.819e-08, 1.76698e-06, 0, 0
    8700, 3.62257e-08, 1.83072e-06, 0, 0
    8800, 3.45552e-08, 1.64561e-06, 0, 0
    8900, 3.27893e-08, 1.53275e-06, 0, 0
    9000, 3.11304e-08, 1.59121e-06, 0, 0
    9100, 2.95303e-08, 1.45468e-06, 0, 0
    9200, 2.78607e-08, 1.39375e-06, 0, 0
    9300, 2.64857e-08, 1.32643e-06, 0, 0
    9400, 2.5164e-08, 1.2643e-06, 0, 0
    9500, 2.39122e-08, 1.20532e-06, 0, 0
    9600, 2.27254e-08, 1.14936e-06, 0, 0
    9700, 2.16e-08, 1.0962e-06, 0, 0
    9800, 2.0532e-08, 1.04567e-06, 0, 0
    9900, 1.95179e-08, 9.9765e-07, 0, 0
    10000, 1.85558e-08, 9.518e-07, 0, 0
    10100, 1.76409e-08, 9.08345e-07, 0, 0
    10200, 1.67726e-08, 8.66822e-07, 0, 0
    10300, 1.59483e-08, 8.27256e-07, 0, 0
    10400, 1.51671e-08, 7.889e-07, 0, 0
    10500, 1.44341e-08, 7.55433e-07, 0, 0
    10600, 1.37303e-08, 7.19916e-07, 0, 0
    10700, 1.30579e-08, 6.87422e-07, 0, 0
    10800, 1.24131e-08, 6.54738e-07, 0, 0
    10900, 1.18029e-08, 6.25955e-07, 0, 0
    11000, 1.12242e-08, 5.98535e-07, 0, 0
    11100, 1.06817e-08, 5.72296e-07, 0, 0
    11200, 1.01618e-08, 5.46964e-07, 0, 0
    The solver residual has converged
    11233, 9.99648e-09, 5.38801e-07, 0, 0

Moving the mesh to the deformed configuration

Max sigmaEq (von Mises stress) = 470710
ExecutionTime = 76.9 s  ClockTime = 77 s

Jacobian determinant max. 1.00944 min. 0.990156

Time = 8

Evolving solid solver
Solving the updated Lagrangian form of the momentum equation for DD
    Corr, res, relRes, matRes, iters
    100, 0.000117208, 0.00980374, 0, 0
    200, 6.44995e-05, 0.00696273, 0, 0
    300, 1.4681e-05, 0.00257227, 0, 0
    400, 6.29274e-06, 0.000919756, 0, 0
    500, 4.52625e-06, 0.000913112, 0, 0
    600, 3.581e-06, 0.000596159, 0, 0
    700, 3.686e-06, 0.000222771, 0, 0
    800, 3.20448e-06, 0.000252148, 0, 0
    900, 2.90076e-06, 0.000116282, 0, 0
    1000, 2.70989e-06, 8.82879e-05, 0, 0
    1100, 2.62172e-06, 7.84657e-05, 0, 0
    1200, 2.4801e-06, 7.33872e-05, 0, 0
    1300, 2.34737e-06, 6.88704e-05, 0, 0
    1400, 2.2225e-06, 6.48081e-05, 0, 0
    1500, 2.10483e-06, 6.10918e-05, 0, 0
    1600, 1.99366e-06, 5.79388e-05, 0, 0
    1700, 1.88844e-06, 5.49412e-05, 0, 0
    1800, 1.78897e-06, 5.21783e-05, 0, 0
    1900, 1.6944e-06, 4.95347e-05, 0, 0
    2000, 1.60507e-06, 4.6992e-05, 0, 0
    2100, 1.52051e-06, 4.45724e-05, 0, 0
    2200, 1.44182e-06, 4.21889e-05, 0, 0
    2300, 1.36581e-06, 4.00354e-05, 0, 0
    2400, 1.29323e-06, 3.7962e-05, 0, 0
    2500, 1.22453e-06, 3.59792e-05, 0, 0
    2600, 1.15958e-06, 3.40928e-05, 0, 0
    2700, 1.09816e-06, 3.22988e-05, 0, 0
    2800, 1.04008e-06, 3.05943e-05, 0, 0
    2900, 9.85139e-07, 2.8999e-05, 0, 0
    3000, 9.33156e-07, 2.75411e-05, 0, 0
    3100, 8.8401e-07, 2.61525e-05, 0, 0
    3200, 8.3751e-07, 2.48306e-05, 0, 0
    3300, 7.93495e-07, 2.3573e-05, 0, 0
    3400, 7.51831e-07, 2.23772e-05, 0, 0
    3500, 7.12388e-07, 2.12405e-05, 0, 0
    3600, 6.75042e-07, 2.01604e-05, 0, 0
    3700, 6.39679e-07, 1.91345e-05, 0, 0
    3800, 6.06192e-07, 1.81603e-05, 0, 0
    3900, 5.74507e-07, 1.72354e-05, 0, 0
    4000, 5.44519e-07, 1.63575e-05, 0, 0
    4100, 5.16125e-07, 1.55244e-05, 0, 0
    4200, 4.8923e-07, 1.47338e-05, 0, 0
    4300, 4.63754e-07, 1.39838e-05, 0, 0
    4400, 4.39621e-07, 1.32947e-05, 0, 0
    4500, 4.16764e-07, 1.26455e-05, 0, 0
    4600, 3.95111e-07, 1.2028e-05, 0, 0
    4700, 3.74597e-07, 1.14408e-05, 0, 0
    4800, 3.55162e-07, 1.08823e-05, 0, 0
    4900, 3.36756e-07, 1.03513e-05, 0, 0
    5000, 3.19323e-07, 9.84636e-06, 0, 0
    5100, 3.02805e-07, 9.36631e-06, 0, 0
    5200, 2.87153e-07, 8.9099e-06, 0, 0
    5300, 2.72343e-07, 8.476e-06, 0, 0
    5400, 2.58351e-07, 8.0635e-06, 0, 0
    5500, 2.45086e-07, 7.67135e-06, 0, 0
    5600, 2.3251e-07, 7.29856e-06, 0, 0
    5700, 2.20598e-07, 6.94417e-06, 0, 0
    5800, 2.09313e-07, 6.61081e-06, 0, 0
    5900, 1.98612e-07, 6.30103e-06, 0, 0
    6000, 1.88463e-07, 6.00585e-06, 0, 0
    6100, 1.7884e-07, 5.72459e-06, 0, 0
    6200, 1.69723e-07, 5.45658e-06, 0, 0
    6300, 1.61089e-07, 5.20149e-06, 0, 0
    6400, 1.52904e-07, 4.95744e-06, 0, 0
    6500, 1.45138e-07, 4.72595e-06, 0, 0
    6600, 1.37776e-07, 4.50532e-06, 0, 0
    6700, 1.30796e-07, 4.29489e-06, 0, 0
    6800, 1.2418e-07, 4.08939e-06, 0, 0
    6900, 1.17898e-07, 3.91516e-06, 0, 0
    7000, 1.11955e-07, 3.73091e-06, 0, 0
    7100, 1.0639e-07, 3.53975e-06, 0, 0
    7200, 1.01026e-07, 3.374e-06, 0, 0
    7300, 9.59376e-08, 3.21666e-06, 0, 0
    7400, 9.111e-08, 3.06689e-06, 0, 0
    7500, 8.64862e-08, 2.93287e-06, 0, 0
    7600, 8.2137e-08, 2.79576e-06, 0, 0
    7700, 7.80764e-08, 2.65825e-06, 0, 0
    7800, 7.41154e-08, 2.54104e-06, 0, 0
    7900, 7.0452e-08, 2.42215e-06, 0, 0
    8000, 6.6879e-08, 2.31138e-06, 0, 0
    8100, 6.35815e-08, 2.20722e-06, 0, 0
    8200, 6.0389e-08, 2.10896e-06, 0, 0
    8300, 5.73467e-08, 2.01007e-06, 0, 0
    8400, 5.45194e-08, 1.92161e-06, 0, 0
    8500, 5.17894e-08, 1.83472e-06, 0, 0
    8600, 4.92048e-08, 1.75154e-06, 0, 0
    8700, 4.67517e-08, 1.67217e-06, 0, 0
    8800, 4.44242e-08, 1.59642e-06, 0, 0
    8900, 4.22153e-08, 1.52411e-06, 0, 0
    9000, 4.01183e-08, 1.45508e-06, 0, 0
    9100, 3.81268e-08, 1.38919e-06, 0, 0
    9200, 3.62349e-08, 1.32628e-06, 0, 0
    9300, 3.44383e-08, 1.26622e-06, 0, 0
    9400, 3.27326e-08, 1.20888e-06, 0, 0
    9500, 3.11125e-08, 1.15414e-06, 0, 0
    9600, 2.95742e-08, 1.10177e-06, 0, 0
    9700, 2.81115e-08, 1.05188e-06, 0, 0
    9800, 2.67216e-08, 1.00425e-06, 0, 0
    9900, 2.54012e-08, 9.58772e-07, 0, 0
    10000, 2.41473e-08, 9.15358e-07, 0, 0
    10100, 2.29558e-08, 8.7391e-07, 0, 0
    10200, 2.18235e-08, 8.34341e-07, 0, 0
    10300, 2.07474e-08, 7.96565e-07, 0, 0
    10400, 1.97248e-08, 7.60501e-07, 0, 0
    10500, 1.87531e-08, 7.26071e-07, 0, 0
    10600, 1.78297e-08, 6.93202e-07, 0, 0
    10700, 1.69521e-08, 6.61823e-07, 0, 0
    10800, 1.61179e-08, 6.31867e-07, 0, 0
    10900, 1.51009e-08, 6.00686e-07, 0, 0
    11000, 1.43508e-08, 5.73747e-07, 0, 0
    11100, 1.3625e-08, 5.46381e-07, 0, 0
    11200, 1.29499e-08, 5.22263e-07, 0, 0
    11300, 1.23098e-08, 4.9933e-07, 0, 0
    11400, 1.17026e-08, 4.77014e-07, 0, 0
    11500, 1.11271e-08, 4.55842e-07, 0, 0
    11600, 1.058e-08, 4.35685e-07, 0, 0
    11700, 1.00242e-08, 4.15035e-07, 0, 0
    The solver residual has converged
    11707, 9.99781e-09, 4.13192e-07, 0, 0

Moving the mesh to the deformed configuration

Max sigmaEq (von Mises stress) = 539118
ExecutionTime = 87.02 s  ClockTime = 87 s

Jacobian determinant max. 1.01007 min. 0.988846

Time = 9

Evolving solid solver
Solving the updated Lagrangian form of the momentum equation for DD
    Corr, res, relRes, matRes, iters
    100, 9.22264e-05, 0.0205885, 0, 0
    200, 3.83507e-05, 0.0112492, 0, 0
    300, 1.22829e-05, 0.00286555, 0, 0
    400, 4.71711e-06, 0.000799948, 0, 0
    500, 3.67225e-06, 0.000310525, 0, 0
    600, 3.59018e-06, 0.000189444, 0, 0
    700, 3.17926e-06, 0.000214944, 0, 0
    800, 3.00099e-06, 0.000125233, 0, 0
    900, 2.85116e-06, 0.00011898, 0, 0
    1000, 2.68982e-06, 9.41926e-05, 0, 0
    1100, 2.53335e-06, 8.78353e-05, 0, 0
    1200, 2.38972e-06, 8.27489e-05, 0, 0
    1300, 2.28349e-06, 7.73817e-05, 0, 0
    1400, 2.16559e-06, 7.29325e-05, 0, 0
    1500, 2.05278e-06, 6.85095e-05, 0, 0
    1600, 1.94549e-06, 6.43793e-05, 0, 0
    1700, 1.84381e-06, 6.08452e-05, 0, 0
    1800, 1.74736e-06, 5.76775e-05, 0, 0
    1900, 1.65587e-06, 5.46134e-05, 0, 0
    2000, 1.56913e-06, 5.16633e-05, 0, 0
    2100, 1.48694e-06, 4.93494e-05, 0, 0
    2200, 1.40519e-06, 4.7216e-05, 0, 0
    2300, 1.33316e-06, 4.5289e-05, 0, 0
    2400, 1.26337e-06, 4.33106e-05, 0, 0
    2500, 1.19283e-06, 4.21819e-05, 0, 0
    2600, 1.13731e-06, 4.00387e-05, 0, 0
    2700, 1.07608e-06, 3.82082e-05, 0, 0
    2800, 1.01993e-06, 3.63639e-05, 0, 0
    2900, 9.66702e-07, 3.45992e-05, 0, 0
    3000, 9.16254e-07, 3.29098e-05, 0, 0
    3100, 8.68426e-07, 3.12937e-05, 0, 0
    3200, 8.23078e-07, 2.97491e-05, 0, 0
    3300, 7.80089e-07, 2.82736e-05, 0, 0
    3400, 7.3934e-07, 2.68651e-05, 0, 0
    3500, 7.00723e-07, 2.55213e-05, 0, 0
    3600, 6.6412e-07, 2.42399e-05, 0, 0
    3700, 6.29425e-07, 2.30186e-05, 0, 0
    3800, 5.96541e-07, 2.1855e-05, 0, 0
    3900, 5.65374e-07, 2.07469e-05, 0, 0
    4000, 5.35836e-07, 1.9692e-05, 0, 0
    4100, 5.07843e-07, 1.86881e-05, 0, 0
    4200, 4.81314e-07, 1.77331e-05, 0, 0
    4300, 4.56173e-07, 1.68248e-05, 0, 0
    4400, 4.32349e-07, 1.59611e-05, 0, 0
    4500, 4.09771e-07, 1.51401e-05, 0, 0
    4600, 3.88377e-07, 1.43599e-05, 0, 0
    4700, 3.68104e-07, 1.36185e-05, 0, 0
    4800, 3.48896e-07, 1.29142e-05, 0, 0
    4900, 3.30705e-07, 1.22452e-05, 0, 0
    5000, 3.13465e-07, 1.16098e-05, 0, 0
    5100, 2.9713e-07, 1.10054e-05, 0, 0
    5200, 2.81639e-07, 1.04328e-05, 0, 0
    5300, 2.66986e-07, 9.88914e-06, 0, 0
    5400, 2.53078e-07, 9.37469e-06, 0, 0
    5500, 2.40008e-07, 8.88408e-06, 0, 0
    5600, 2.2753e-07, 8.41817e-06, 0, 0
    5700, 2.15698e-07, 7.97867e-06, 0, 0
    5800, 2.04491e-07, 7.55948e-06, 0, 0
    5900, 1.93964e-07, 7.16263e-06, 0, 0
    6000, 1.82912e-07, 6.82921e-06, 0, 0
    6100, 1.73343e-07, 6.4713e-06, 0, 0
    6200, 1.65456e-07, 6.10549e-06, 0, 0
    6300, 1.56188e-07, 5.80536e-06, 0, 0
    6400, 1.48757e-07, 5.52367e-06, 0, 0
    6500, 1.40497e-07, 5.21185e-06, 0, 0
    6600, 1.33921e-07, 4.95473e-06, 0, 0
    6700, 1.2694e-07, 4.65978e-06, 0, 0
    6800, 1.20586e-07, 4.41034e-06, 0, 0
    6900, 1.14468e-07, 4.18334e-06, 0, 0
    7000, 1.07674e-07, 3.95656e-06, 0, 0
    7100, 1.02441e-07, 3.75662e-06, 0, 0
    7200, 9.73118e-08, 3.559e-06, 0, 0
    7300, 9.26578e-08, 3.37799e-06, 0, 0
    7400, 8.78804e-08, 3.17724e-06, 0, 0
    7500, 8.34829e-08, 3.00577e-06, 0, 0
    7600, 7.92698e-08, 2.8512e-06, 0, 0
    7700, 7.51641e-08, 2.69186e-06, 0, 0
    7800, 7.1103e-08, 2.56167e-06, 0, 0
    7900, 6.77322e-08, 2.40892e-06, 0, 0
    8000, 6.42417e-08, 2.28161e-06, 0, 0
    8100, 6.0882e-08, 2.16966e-06, 0, 0
    8200, 5.77643e-08, 2.05242e-06, 0, 0
    8300, 5.49675e-08, 1.92702e-06, 0, 0
    8400, 5.21642e-08, 1.82302e-06, 0, 0
    8500, 4.95058e-08, 1.7251e-06, 0, 0
    8600, 4.69831e-08, 1.63233e-06, 0, 0
    8700, 4.45894e-08, 1.54444e-06, 0, 0
    8800, 4.23191e-08, 1.46119e-06, 0, 0
    8900, 4.01646e-08, 1.38235e-06, 0, 0
    9000, 3.812e-08, 1.30769e-06, 0, 0
    9100, 3.61801e-08, 1.23699e-06, 0, 0
    9200, 3.43408e-08, 1.17005e-06, 0, 0
    9300, 3.25991e-08, 1.10373e-06, 0, 0
    9400, 3.09465e-08, 1.04726e-06, 0, 0
    9500, 2.93606e-08, 9.96587e-07, 0, 0
    9600, 2.78745e-08, 9.4982e-07, 0, 0
    9700, 2.64656e-08, 9.06465e-07, 0, 0
    9800, 2.51212e-08, 8.64906e-07, 0, 0
    9900, 2.38886e-08, 8.23412e-07, 0, 0
    10000, 2.26657e-08, 7.86463e-07, 0, 0
    10100, 2.15258e-08, 7.50682e-07, 0, 0
    10200, 2.04491e-08, 7.16039e-07, 0, 0
    10300, 1.94175e-08, 6.83238e-07, 0, 0
    10400, 1.84359e-08, 6.52143e-07, 0, 0
    10500, 1.75043e-08, 6.22429e-07, 0, 0
    10600, 1.66203e-08, 5.94044e-07, 0, 0
    10700, 1.57812e-08, 5.6693e-07, 0, 0
    10800, 1.49857e-08, 5.42243e-07, 0, 0
    10900, 1.42138e-08, 5.22422e-07, 0, 0
    11000, 1.34967e-08, 4.97902e-07, 0, 0
    11100, 1.28092e-08, 4.72716e-07, 0, 0
    11200, 1.2124e-08, 4.46817e-07, 0, 0
    11300, 1.1513e-08, 4.24486e-07, 0, 0
    11400, 1.09348e-08, 4.13517e-07, 0, 0
    11500, 1.03659e-08, 3.94698e-07, 0, 0
    The solver residual has converged
    11571, 9.98735e-09, 3.81192e-07, 0, 0

Moving the mesh to the deformed configuration

Max sigmaEq (von Mises stress) = 611771
ExecutionTime = 97.12 s  ClockTime = 97 s

Jacobian determinant max. 1.00485 min. 0.988962

Time = 10

Evolving solid solver
Solving the updated Lagrangian form of the momentum equation for DD
    Corr, res, relRes, matRes, iters
    100, 4.90588e-05, 0.00835337, 0, 0
    200, 3.11219e-05, 0.00224964, 0, 0
    300, 1.27858e-05, 0.00732155, 0, 0
    400, 7.0884e-06, 0.00252041, 0, 0
    500, 6.47572e-06, 0.00366054, 0, 0
    600, 3.34978e-06, 0.00276084, 0, 0
    700, 2.55513e-06, 0.00117248, 0, 0
    800, 1.83181e-06, 0.000302451, 0, 0
    900, 1.59998e-06, 0.000549025, 0, 0
    1000, 1.47049e-06, 0.000488512, 0, 0
    1100, 1.31151e-06, 0.000280188, 0, 0
    1200, 1.1917e-06, 0.000113784, 0, 0
    1300, 1.13736e-06, 0.00010368, 0, 0
    1400, 1.05053e-06, 0.000120628, 0, 0
    1500, 9.85462e-07, 8.35125e-05, 0, 0
    1600, 9.24913e-07, 8.85074e-05, 0, 0
    1700, 8.63927e-07, 6.51246e-05, 0, 0
    1800, 8.18088e-07, 5.94337e-05, 0, 0
    1900, 7.59765e-07, 5.46887e-05, 0, 0
    2000, 7.10451e-07, 4.95811e-05, 0, 0
    2100, 6.72183e-07, 5.0126e-05, 0, 0
    2200, 6.31277e-07, 4.16409e-05, 0, 0
    2300, 5.9812e-07, 4.07431e-05, 0, 0
    2400, 5.66107e-07, 3.82814e-05, 0, 0
    2500, 5.2934e-07, 3.53354e-05, 0, 0
    2600, 4.95737e-07, 3.15593e-05, 0, 0
    2700, 4.71374e-07, 2.92236e-05, 0, 0
    2800, 4.4507e-07, 2.75062e-05, 0, 0
    2900, 4.204e-07, 2.58299e-05, 0, 0
    3000, 3.97151e-07, 2.43021e-05, 0, 0
    3100, 3.75282e-07, 2.29914e-05, 0, 0
    3200, 3.5475e-07, 2.18066e-05, 0, 0
    3300, 3.35155e-07, 2.07045e-05, 0, 0
    3400, 3.17026e-07, 1.97149e-05, 0, 0
    3500, 2.99958e-07, 1.86725e-05, 0, 0
    3600, 2.83838e-07, 1.76886e-05, 0, 0
    3700, 2.68625e-07, 1.67585e-05, 0, 0
    3800, 2.54213e-07, 1.58573e-05, 0, 0
    3900, 2.40921e-07, 1.5025e-05, 0, 0
    4000, 2.28202e-07, 1.42072e-05, 0, 0
    4100, 2.16366e-07, 1.3486e-05, 0, 0
    4200, 2.04722e-07, 1.27755e-05, 0, 0
    4300, 1.94041e-07, 1.21504e-05, 0, 0
    4400, 1.83884e-07, 1.15413e-05, 0, 0
    4500, 1.74282e-07, 1.09732e-05, 0, 0
    4600, 1.65283e-07, 1.03821e-05, 0, 0
    4700, 1.56085e-07, 9.84003e-06, 0, 0
    4800, 1.48465e-07, 9.46915e-06, 0, 0
    4900, 1.40155e-07, 8.88955e-06, 0, 0
    5000, 1.32833e-07, 8.44371e-06, 0, 0
    5100, 1.25877e-07, 8.02474e-06, 0, 0
    5200, 1.2007e-07, 7.72552e-06, 0, 0
    5300, 1.1384e-07, 7.32497e-06, 0, 0
    5400, 1.07872e-07, 6.96835e-06, 0, 0
    5500, 1.02214e-07, 6.6333e-06, 0, 0
    5600, 9.68459e-08, 6.31402e-06, 0, 0
    5700, 9.17529e-08, 6.00978e-06, 0, 0
    5800, 8.68971e-08, 5.71197e-06, 0, 0
    5900, 8.21754e-08, 5.46861e-06, 0, 0
    6000, 7.78005e-08, 5.20827e-06, 0, 0
    6100, 7.36792e-08, 4.95812e-06, 0, 0
    6200, 6.97779e-08, 4.71958e-06, 0, 0
    6300, 6.60834e-08, 4.49215e-06, 0, 0
    6400, 6.25846e-08, 4.27535e-06, 0, 0
    6500, 5.92723e-08, 4.06874e-06, 0, 0
    6600, 5.61357e-08, 3.87188e-06, 0, 0
    6700, 5.31653e-08, 3.68432e-06, 0, 0
    6800, 5.03522e-08, 3.50563e-06, 0, 0
    6900, 4.76877e-08, 3.33541e-06, 0, 0
    7000, 4.51637e-08, 3.17326e-06, 0, 0
    7100, 4.27728e-08, 3.01881e-06, 0, 0
    7200, 4.0508e-08, 2.87169e-06, 0, 0
    7300, 3.83628e-08, 2.73157e-06, 0, 0
    7400, 3.6333e-08, 2.59813e-06, 0, 0
    7500, 3.44103e-08, 2.47104e-06, 0, 0
    7600, 3.25898e-08, 2.35002e-06, 0, 0
    7700, 3.08661e-08, 2.23478e-06, 0, 0
    7800, 2.92333e-08, 2.12505e-06, 0, 0
    7900, 2.76866e-08, 2.02058e-06, 0, 0
    8000, 2.62215e-08, 1.92112e-06, 0, 0
    8100, 2.48336e-08, 1.82644e-06, 0, 0
    8200, 2.3519e-08, 1.73632e-06, 0, 0
    8300, 2.22737e-08, 1.65053e-06, 0, 0
    8400, 2.10942e-08, 1.56888e-06, 0, 0
    8500, 1.99773e-08, 1.49118e-06, 0, 0
    8600, 1.89214e-08, 1.41724e-06, 0, 0
    8700, 1.7913e-08, 1.35107e-06, 0, 0
    8800, 1.69572e-08, 1.28461e-06, 0, 0
    8900, 1.57862e-08, 1.1862e-06, 0, 0
    9000, 1.51931e-08, 1.15645e-06, 0, 0
    9100, 1.43548e-08, 1.09907e-06, 0, 0
    9200, 1.33556e-08, 1.0114e-06, 0, 0
    9300, 1.29605e-08, 9.93092e-07, 0, 0
    9400, 1.22506e-08, 9.37873e-07, 0, 0
    9500, 1.15937e-08, 8.90613e-07, 0, 0
    9600, 1.09871e-08, 8.4649e-07, 0, 0
    9700, 1.03661e-08, 7.94615e-07, 0, 0
    The solver residual has converged
    9719, 9.97752e-09, 7.74262e-07, 0, 0

Moving the mesh to the deformed configuration

Max sigmaEq (von Mises stress) = 690346
ExecutionTime = 105.64 s  ClockTime = 105 s

Jacobian determinant max. 1.01338 min. 0.988649

Time = 11

Evolving solid solver
Solving the updated Lagrangian form of the momentum equation for DD
    Corr, res, relRes, matRes, iters
    100, 0.000125681, 0.0113799, 0, 0
    200, 5.75036e-05, 0.00477699, 0, 0
    300, 1.98145e-05, 0.00538047, 0, 0
    400, 1.10762e-05, 0.00164739, 0, 0
    500, 6.41207e-06, 0.000790961, 0, 0
    600, 5.09347e-06, 0.00037477, 0, 0
    700, 4.79451e-06, 0.000252027, 0, 0
    800, 3.61601e-06, 0.000257598, 0, 0
    900, 3.81482e-06, 0.000213679, 0, 0
    1000, 3.30145e-06, 0.000193444, 0, 0
    1100, 3.26317e-06, 0.000140181, 0, 0
    1200, 2.96875e-06, 0.000111416, 0, 0
    1300, 2.89176e-06, 7.92879e-05, 0, 0
    1400, 2.75088e-06, 7.75156e-05, 0, 0
    1500, 2.6061e-06, 6.79323e-05, 0, 0
    1600, 2.45828e-06, 6.34983e-05, 0, 0
    1700, 2.35041e-06, 6.09294e-05, 0, 0
    1800, 2.20198e-06, 5.56676e-05, 0, 0
    1900, 2.0838e-06, 5.26291e-05, 0, 0
    2000, 1.97181e-06, 4.99706e-05, 0, 0
    2100, 1.86581e-06, 4.74295e-05, 0, 0
    2200, 1.76551e-06, 4.49997e-05, 0, 0
    2300, 1.67069e-06, 4.26782e-05, 0, 0
    2400, 1.58121e-06, 4.04624e-05, 0, 0
    2500, 1.49656e-06, 3.83496e-05, 0, 0
    2600, 1.41665e-06, 3.63369e-05, 0, 0
    2700, 1.34107e-06, 3.44243e-05, 0, 0
    2800, 1.26976e-06, 3.26555e-05, 0, 0
    2900, 1.20272e-06, 3.1062e-05, 0, 0
    3000, 1.13932e-06, 2.95305e-05, 0, 0
    3100, 1.07911e-06, 2.80699e-05, 0, 0
    3200, 1.02232e-06, 2.6672e-05, 0, 0
    3300, 9.68468e-07, 2.53369e-05, 0, 0
    3400, 9.1765e-07, 2.40614e-05, 0, 0
    3500, 8.6945e-07, 2.28448e-05, 0, 0
    3600, 8.23818e-07, 2.16874e-05, 0, 0
    3700, 7.80604e-07, 2.05858e-05, 0, 0
    3800, 7.39681e-07, 1.95377e-05, 0, 0
    3900, 7.00937e-07, 1.85412e-05, 0, 0
    4000, 6.64257e-07, 1.75941e-05, 0, 0
    4100, 6.29517e-07, 1.66944e-05, 0, 0
    4200, 5.96612e-07, 1.584e-05, 0, 0
    4300, 5.65449e-07, 1.50514e-05, 0, 0
    4400, 5.35953e-07, 1.43144e-05, 0, 0
    4500, 5.08019e-07, 1.36121e-05, 0, 0
    4600, 4.81561e-07, 1.29434e-05, 0, 0
    4700, 4.56529e-07, 1.23068e-05, 0, 0
    4800, 4.3282e-07, 1.17009e-05, 0, 0
    4900, 4.10367e-07, 1.11244e-05, 0, 0
    5000, 3.89092e-07, 1.0576e-05, 0, 0
    5100, 3.68954e-07, 1.00544e-05, 0, 0
    5200, 3.4987e-07, 9.55851e-06, 0, 0
    5300, 3.31989e-07, 9.04494e-06, 0, 0
    5400, 3.14773e-07, 8.6351e-06, 0, 0
    5500, 2.98543e-07, 8.18259e-06, 0, 0
    5600, 2.83203e-07, 7.77841e-06, 0, 0
    5700, 2.68753e-07, 7.39786e-06, 0, 0
    5800, 2.54879e-07, 7.03556e-06, 0, 0
    5900, 2.4174e-07, 6.69129e-06, 0, 0
    6000, 2.29293e-07, 6.36401e-06, 0, 0
    6100, 2.17494e-07, 6.05287e-06, 0, 0
    6200, 2.0631e-07, 5.75709e-06, 0, 0
    6300, 1.95706e-07, 5.4759e-06, 0, 0
    6400, 1.85652e-07, 5.20858e-06, 0, 0
    6500, 1.76121e-07, 4.95867e-06, 0, 0
    6600, 1.67098e-07, 4.71458e-06, 0, 0
    6700, 1.58619e-07, 4.50666e-06, 0, 0
    6800, 1.50438e-07, 4.29347e-06, 0, 0
    6900, 1.42728e-07, 4.08896e-06, 0, 0
    7000, 1.35537e-07, 3.89146e-06, 0, 0
    7100, 1.28841e-07, 3.71581e-06, 0, 0
    7200, 1.22169e-07, 3.54387e-06, 0, 0
    7300, 1.15882e-07, 3.37652e-06, 0, 0
    7400, 1.09934e-07, 3.21675e-06, 0, 0
    7500, 1.043e-07, 3.06445e-06, 0, 0
    7600, 9.8976e-08, 2.91931e-06, 0, 0
    7700, 9.39283e-08, 2.78099e-06, 0, 0
    7800, 8.91438e-08, 2.6492e-06, 0, 0
    7900, 8.46058e-08, 2.52365e-06, 0, 0
    8000, 8.03033e-08, 2.40403e-06, 0, 0
    8100, 7.62227e-08, 2.29008e-06, 0, 0
    8200, 7.2352e-08, 2.18153e-06, 0, 0
    8300, 6.86799e-08, 2.07813e-06, 0, 0
    8400, 6.51964e-08, 1.97964e-06, 0, 0
    8500, 6.18919e-08, 1.88582e-06, 0, 0
    8600, 5.87564e-08, 1.79646e-06, 0, 0
    8700, 5.57813e-08, 1.71135e-06, 0, 0
    8800, 5.29594e-08, 1.63028e-06, 0, 0
    8900, 5.02824e-08, 1.55306e-06, 0, 0
    9000, 4.77423e-08, 1.48031e-06, 0, 0
    9100, 4.53317e-08, 1.41102e-06, 0, 0
    9200, 4.30438e-08, 1.34497e-06, 0, 0
    9300, 4.08728e-08, 1.28199e-06, 0, 0
    9400, 3.88128e-08, 1.22196e-06, 0, 0
    9500, 3.68581e-08, 1.16473e-06, 0, 0
    9600, 3.50044e-08, 1.11018e-06, 0, 0
    9700, 3.32448e-08, 1.05818e-06, 0, 0
    9800, 3.15744e-08, 1.00861e-06, 0, 0
    9900, 2.99886e-08, 9.61359e-07, 0, 0
    10000, 2.84831e-08, 9.16321e-07, 0, 0
    10100, 2.70541e-08, 8.73393e-07, 0, 0
    10200, 2.56975e-08, 8.32476e-07, 0, 0
    10300, 2.44096e-08, 7.93477e-07, 0, 0
    10400, 2.31867e-08, 7.56305e-07, 0, 0
    10500, 2.20257e-08, 7.20877e-07, 0, 0
    10600, 2.09232e-08, 6.87109e-07, 0, 0
    10700, 1.98764e-08, 6.54926e-07, 0, 0
    10800, 1.88824e-08, 6.24252e-07, 0, 0
    10900, 1.79387e-08, 5.95017e-07, 0, 0
    11000, 1.70425e-08, 5.67154e-07, 0, 0
    11100, 1.61915e-08, 5.40599e-07, 0, 0
    11200, 1.53833e-08, 5.1529e-07, 0, 0
    11300, 1.46159e-08, 4.91169e-07, 0, 0
    11400, 1.3887e-08, 4.6818e-07, 0, 0
    11500, 1.31949e-08, 4.4627e-07, 0, 0
    11600, 1.2498e-08, 4.21148e-07, 0, 0
    11700, 1.18869e-08, 4.03012e-07, 0, 0
    11800, 1.1297e-08, 3.84568e-07, 0, 0
    11900, 1.0738e-08, 3.6683e-07, 0, 0
    12000, 1.02009e-08, 3.49435e-07, 0, 0
    The solver residual has converged
    12036, 9.99978e-09, 3.44123e-07, 0, 0

Moving the mesh to the deformed configuration

Max sigmaEq (von Mises stress) = 774907
ExecutionTime = 116.13 s  ClockTime = 116 s

Jacobian determinant max. 1.00907 min. 0.987735

Time = 12

Evolving solid solver
Solving the updated Lagrangian form of the momentum equation for DD
    Corr, res, relRes, matRes, iters
    100, 6.22011e-05, 0.0205801, 0, 0
    200, 2.16497e-05, 0.0088999, 0, 0
    300, 1.39427e-05, 0.0127985, 0, 0
    400, 9.91642e-06, 0.00709702, 0, 0
    500, 5.59662e-06, 0.00369728, 0, 0
    600, 3.62185e-06, 0.00165299, 0, 0
    700, 2.29586e-06, 0.000820675, 0, 0
    800, 2.16856e-06, 0.000394684, 0, 0
    900, 1.81201e-06, 0.000568143, 0, 0
    1000, 1.83879e-06, 0.000555367, 0, 0
    1100, 1.67214e-06, 0.000439687, 0, 0
    1200, 1.58604e-06, 0.000249829, 0, 0
    1300, 1.46884e-06, 0.00018434, 0, 0
    1400, 1.38806e-06, 0.000117801, 0, 0
    1500, 1.31344e-06, 0.000110724, 0, 0
    1600, 1.22993e-06, 0.000103668, 0, 0
    1700, 1.16027e-06, 9.44333e-05, 0, 0
    1800, 1.10041e-06, 9.08048e-05, 0, 0
    1900, 1.0445e-06, 8.88773e-05, 0, 0
    2000, 9.94106e-07, 8.4785e-05, 0, 0
    2100, 9.41191e-07, 8.09105e-05, 0, 0
    2200, 8.92201e-07, 7.72411e-05, 0, 0
    2300, 8.45756e-07, 7.35592e-05, 0, 0
    2400, 8.02218e-07, 7.00058e-05, 0, 0
    2500, 7.59209e-07, 6.67959e-05, 0, 0
    2600, 7.16641e-07, 6.18127e-05, 0, 0
    2700, 6.76768e-07, 5.93492e-05, 0, 0
    2800, 6.41729e-07, 5.65454e-05, 0, 0
    2900, 6.08688e-07, 5.38327e-05, 0, 0
    3000, 5.77685e-07, 4.98793e-05, 0, 0
    3100, 5.51717e-07, 4.82408e-05, 0, 0
    3200, 5.25662e-07, 4.57866e-05, 0, 0
    3300, 4.99499e-07, 4.38413e-05, 0, 0
    3400, 4.74676e-07, 4.17043e-05, 0, 0
    3500, 4.50293e-07, 3.94822e-05, 0, 0
    3600, 4.27756e-07, 3.76791e-05, 0, 0
    3700, 4.05639e-07, 3.60071e-05, 0, 0
    3800, 3.84773e-07, 3.44127e-05, 0, 0
    3900, 3.65109e-07, 3.315e-05, 0, 0
    4000, 3.46708e-07, 3.16996e-05, 0, 0
    4100, 3.28789e-07, 3.029e-05, 0, 0
    4200, 3.11694e-07, 2.89372e-05, 0, 0
    4300, 2.95421e-07, 2.76396e-05, 0, 0
    4400, 2.79945e-07, 2.6396e-05, 0, 0
    4500, 2.65257e-07, 2.52051e-05, 0, 0
    4600, 2.51104e-07, 2.40679e-05, 0, 0
    4700, 2.37938e-07, 2.29785e-05, 0, 0
    4800, 2.25382e-07, 2.19465e-05, 0, 0
    4900, 2.13537e-07, 2.09461e-05, 0, 0
    5000, 2.01903e-07, 2.01893e-05, 0, 0
    5100, 1.91301e-07, 1.92635e-05, 0, 0
    5200, 1.81296e-07, 1.83681e-05, 0, 0
    5300, 1.71841e-07, 1.7512e-05, 0, 0
    5400, 1.62794e-07, 1.6696e-05, 0, 0
    5500, 1.5414e-07, 1.60494e-05, 0, 0
    5600, 1.45772e-07, 1.51356e-05, 0, 0
    5700, 1.38378e-07, 1.44068e-05, 0, 0
    5800, 1.31073e-07, 1.38592e-05, 0, 0
    5900, 1.24404e-07, 1.31868e-05, 0, 0
    6000, 1.17695e-07, 1.2575e-05, 0, 0
    6100, 1.11528e-07, 1.19783e-05, 0, 0
    6200, 1.0559e-07, 1.14129e-05, 0, 0
    6300, 1.00068e-07, 1.08706e-05, 0, 0
    6400, 9.48334e-08, 1.03517e-05, 0, 0
    6500, 8.98264e-08, 9.85283e-06, 0, 0
    6600, 8.4969e-08, 9.34579e-06, 0, 0
    6700, 8.0561e-08, 8.90877e-06, 0, 0
    6800, 7.63575e-08, 8.50654e-06, 0, 0
    6900, 7.21916e-08, 8.07907e-06, 0, 0
    7000, 6.83778e-08, 7.69588e-06, 0, 0
    7100, 6.48118e-08, 7.33146e-06, 0, 0
    7200, 6.14592e-08, 6.98358e-06, 0, 0
    7300, 5.82836e-08, 6.65242e-06, 0, 0
    7400, 5.52733e-08, 6.33691e-06, 0, 0
    7500, 5.24868e-08, 6.0403e-06, 0, 0
    7600, 4.97769e-08, 5.75163e-06, 0, 0
    7700, 4.7176e-08, 5.47841e-06, 0, 0
    7800, 4.47627e-08, 5.21688e-06, 0, 0
    7900, 4.24645e-08, 4.96946e-06, 0, 0
    8000, 4.02814e-08, 4.73275e-06, 0, 0
    8100, 3.82678e-08, 4.50602e-06, 0, 0
    8200, 3.63039e-08, 4.2923e-06, 0, 0
    8300, 3.44402e-08, 4.08743e-06, 0, 0
    8400, 3.26893e-08, 3.89257e-06, 0, 0
    8500, 3.10338e-08, 3.70704e-06, 0, 0
    8600, 2.94623e-08, 3.53039e-06, 0, 0
    8700, 2.79702e-08, 3.3622e-06, 0, 0
    8800, 2.65538e-08, 3.20209e-06, 0, 0
    8900, 2.52095e-08, 3.04967e-06, 0, 0
    9000, 2.39331e-08, 2.90458e-06, 0, 0
    9100, 2.27229e-08, 2.76647e-06, 0, 0
    9200, 2.1574e-08, 2.63501e-06, 0, 0
    9300, 2.04859e-08, 2.50987e-06, 0, 0
    9400, 1.9458e-08, 2.39076e-06, 0, 0
    9500, 1.84889e-08, 2.27738e-06, 0, 0
    9600, 1.75692e-08, 2.16945e-06, 0, 0
    9700, 1.66912e-08, 2.0673e-06, 0, 0
    9800, 1.58595e-08, 1.969e-06, 0, 0
    9900, 1.50742e-08, 1.87546e-06, 0, 0
    10000, 1.43274e-08, 1.78668e-06, 0, 0
    10100, 1.36398e-08, 1.70042e-06, 0, 0
    10200, 1.29554e-08, 1.62112e-06, 0, 0
    10300, 1.23067e-08, 1.54309e-06, 0, 0
    10400, 1.16955e-08, 1.47119e-06, 0, 0
    10500, 1.1111e-08, 1.40209e-06, 0, 0
    10600, 1.05585e-08, 1.33624e-06, 0, 0
    10700, 1.00101e-08, 1.27314e-06, 0, 0
    The solver residual has converged
    10703, 9.99336e-09, 1.27051e-06, 0, 0

Moving the mesh to the deformed configuration

Max sigmaEq (von Mises stress) = 866987
ExecutionTime = 125.4 s  ClockTime = 125 s

Jacobian determinant max. 1.00908 min. 0.988079

Time = 13

Evolving solid solver
Solving the updated Lagrangian form of the momentum equation for DD
    Corr, res, relRes, matRes, iters
    100, 0.000104429, 0.0246722, 0, 0
    200, 3.39832e-05, 0.00555133, 0, 0
    300, 1.89557e-05, 0.00817806, 0, 0
    400, 1.28255e-05, 0.00536714, 0, 0
    500, 7.35733e-06, 0.00294508, 0, 0
    600, 4.694e-06, 0.00205291, 0, 0
    700, 3.37902e-06, 0.00122666, 0, 0
    800, 2.87643e-06, 0.000723165, 0, 0
    900, 2.31857e-06, 0.00043415, 0, 0
    1000, 2.21941e-06, 0.00026416, 0, 0
    1100, 1.96259e-06, 0.000181671, 0, 0
    1200, 1.92361e-06, 9.17082e-05, 0, 0
    1300, 1.78266e-06, 0.000112616, 0, 0
    1400, 1.71874e-06, 6.32638e-05, 0, 0
    1500, 1.62522e-06, 6.00074e-05, 0, 0
    1600, 1.53811e-06, 5.68686e-05, 0, 0
    1700, 1.45702e-06, 5.39158e-05, 0, 0
    1800, 1.37982e-06, 5.10876e-05, 0, 0
    1900, 1.30583e-06, 4.84203e-05, 0, 0
    2000, 1.23673e-06, 4.58198e-05, 0, 0
    2100, 1.17115e-06, 4.33631e-05, 0, 0
    2200, 1.11227e-06, 4.1183e-05, 0, 0
    2300, 1.05263e-06, 3.89848e-05, 0, 0
    2400, 9.95887e-07, 3.62825e-05, 0, 0
    2500, 9.4302e-07, 3.43616e-05, 0, 0
    2600, 8.88234e-07, 3.29377e-05, 0, 0
    2700, 8.41117e-07, 3.12202e-05, 0, 0
    2800, 8.00341e-07, 2.97325e-05, 0, 0
    2900, 7.57992e-07, 2.74733e-05, 0, 0
    3000, 7.13922e-07, 2.64956e-05, 0, 0
    3100, 6.79557e-07, 2.52154e-05, 0, 0
    3200, 6.43707e-07, 2.32344e-05, 0, 0
    3300, 6.06258e-07, 2.24597e-05, 0, 0
    3400, 5.77209e-07, 2.13551e-05, 0, 0
    3500, 5.46799e-07, 1.96331e-05, 0, 0
    3600, 5.15038e-07, 1.90137e-05, 0, 0
    3700, 4.9046e-07, 1.80716e-05, 0, 0
    3800, 4.6466e-07, 1.65843e-05, 0, 0
    3900, 4.3775e-07, 1.60836e-05, 0, 0
    4000, 4.16829e-07, 1.52831e-05, 0, 0
    4100, 3.94902e-07, 1.40104e-05, 0, 0
    4200, 3.72148e-07, 1.36011e-05, 0, 0
    4300, 3.54317e-07, 1.29758e-05, 0, 0
    4400, 3.35679e-07, 1.18427e-05, 0, 0
    4500, 3.16508e-07, 1.15869e-05, 0, 0
    4600, 3.01334e-07, 1.10547e-05, 0, 0
    4700, 2.85498e-07, 1.00913e-05, 0, 0
    4800, 2.69341e-07, 9.87025e-06, 0, 0
    4900, 2.56358e-07, 9.4146e-06, 0, 0
    5000, 2.43014e-07, 8.95133e-06, 0, 0
    5100, 2.29128e-07, 8.39515e-06, 0, 0
    5200, 2.18166e-07, 8.04066e-06, 0, 0
    5300, 2.05632e-07, 7.53807e-06, 0, 0
    5400, 1.95827e-07, 6.93258e-06, 0, 0
    5500, 1.85724e-07, 6.82248e-06, 0, 0
    5600, 1.76e-07, 6.44122e-06, 0, 0
    5700, 1.66811e-07, 6.10889e-06, 0, 0
    5800, 1.58115e-07, 5.79372e-06, 0, 0
    5900, 1.49874e-07, 5.49494e-06, 0, 0
    6000, 1.42066e-07, 5.21177e-06, 0, 0
    6100, 1.34668e-07, 4.94342e-06, 0, 0
    6200, 1.27658e-07, 4.68911e-06, 0, 0
    6300, 1.20689e-07, 4.42203e-06, 0, 0
    6400, 1.14863e-07, 4.22914e-06, 0, 0
    6500, 1.08861e-07, 4.01109e-06, 0, 0
    6600, 1.03038e-07, 3.68555e-06, 0, 0
    6700, 9.77027e-08, 3.50659e-06, 0, 0
    6800, 9.26626e-08, 3.336e-06, 0, 0
    6900, 8.78844e-08, 3.17388e-06, 0, 0
    7000, 8.33613e-08, 3.01951e-06, 0, 0
    7100, 7.90685e-08, 2.87299e-06, 0, 0
    7200, 7.51068e-08, 2.80776e-06, 0, 0
    7300, 7.13024e-08, 2.67175e-06, 0, 0
    7400, 6.74756e-08, 2.53441e-06, 0, 0
    7500, 6.40377e-08, 2.39489e-06, 0, 0
    7600, 6.07651e-08, 2.29168e-06, 0, 0
    7700, 5.76422e-08, 2.17845e-06, 0, 0
    7800, 5.47832e-08, 2.07275e-06, 0, 0
    7900, 5.18472e-08, 1.96925e-06, 0, 0
    8000, 4.91844e-08, 1.87175e-06, 0, 0
    8100, 4.66989e-08, 1.77894e-06, 0, 0
    8200, 4.43769e-08, 1.69222e-06, 0, 0
    8300, 4.20837e-08, 1.60176e-06, 0, 0
    8400, 3.98716e-08, 1.51506e-06, 0, 0
    8500, 3.78222e-08, 1.45954e-06, 0, 0
    8600, 3.59448e-08, 1.37399e-06, 0, 0
    8700, 3.40545e-08, 1.31976e-06, 0, 0
    8800, 3.2316e-08, 1.25738e-06, 0, 0
    8900, 3.06586e-08, 1.19706e-06, 0, 0
    9000, 2.91329e-08, 1.12831e-06, 0, 0
    9100, 2.7578e-08, 1.0848e-06, 0, 0
    9200, 2.62203e-08, 1.02848e-06, 0, 0
    9300, 2.48405e-08, 9.83883e-07, 0, 0
    9400, 2.35786e-08, 9.34911e-07, 0, 0
    9500, 2.24141e-08, 8.82025e-07, 0, 0
    9600, 2.12329e-08, 8.49675e-07, 0, 0
    9700, 2.01536e-08, 8.05542e-07, 0, 0
    9800, 1.91227e-08, 7.67973e-07, 0, 0
    9900, 1.81595e-08, 7.29898e-07, 0, 0
    10000, 1.72286e-08, 6.95129e-07, 0, 0
    10100, 1.63486e-08, 6.61928e-07, 0, 0
    10200, 1.55149e-08, 6.30273e-07, 0, 0
    10300, 1.46989e-08, 6.00737e-07, 0, 0
    10400, 1.39592e-08, 5.70596e-07, 0, 0
    10500, 1.32442e-08, 5.43935e-07, 0, 0
    10600, 1.25671e-08, 5.17601e-07, 0, 0
    10700, 1.1927e-08, 4.92111e-07, 0, 0
    10800, 1.13242e-08, 4.67814e-07, 0, 0
    10900, 1.07386e-08, 4.47252e-07, 0, 0
    11000, 1.01921e-08, 4.25539e-07, 0, 0
    The solver residual has converged
    11037, 9.99761e-09, 4.17781e-07, 0, 0

Moving the mesh to the deformed configuration

Max sigmaEq (von Mises stress) = 968098
ExecutionTime = 135.01 s  ClockTime = 135 s

Jacobian determinant max. 1.01124 min. 0.987325

Time = 14

Evolving solid solver
Solving the updated Lagrangian form of the momentum equation for DD
    Corr, res, relRes, matRes, iters
    100, 8.85945e-05, 0.0232475, 0, 0
    200, 4.99708e-05, 0.0165229, 0, 0
    300, 1.32816e-05, 0.00334729, 0, 0
    400, 5.90984e-06, 0.00313973, 0, 0
    500, 4.49401e-06, 0.00203712, 0, 0
    600, 3.72595e-06, 0.00142526, 0, 0
    700, 2.80665e-06, 0.000707335, 0, 0
    800, 2.67643e-06, 0.000284471, 0, 0
    900, 2.28026e-06, 0.000147535, 0, 0
    1000, 2.25446e-06, 0.000179373, 0, 0
    1100, 2.11957e-06, 0.000146606, 0, 0
    1200, 1.99404e-06, 8.13746e-05, 0, 0
    1300, 1.89935e-06, 8.00694e-05, 0, 0
    1400, 1.8018e-06, 7.72732e-05, 0, 0
    1500, 1.71336e-06, 7.52656e-05, 0, 0
    1600, 1.62399e-06, 7.25785e-05, 0, 0
    1700, 1.54648e-06, 6.9945e-05, 0, 0
    1800, 1.46829e-06, 6.76368e-05, 0, 0
    1900, 1.38544e-06, 6.50068e-05, 0, 0
    2000, 1.3211e-06, 6.25292e-05, 0, 0
    2100, 1.25503e-06, 6.02827e-05, 0, 0
    2200, 1.17998e-06, 5.76423e-05, 0, 0
    2300, 1.1269e-06, 5.54154e-05, 0, 0
    2400, 1.07098e-06, 5.32618e-05, 0, 0
    2500, 1.00445e-06, 5.07843e-05, 0, 0
    2600, 9.60228e-07, 4.87989e-05, 0, 0
    2700, 9.12914e-07, 4.67861e-05, 0, 0
    2800, 8.5533e-07, 4.45383e-05, 0, 0
    2900, 8.10946e-07, 4.2594e-05, 0, 0
    3000, 7.76772e-07, 4.09047e-05, 0, 0
    3100, 7.36189e-07, 3.91078e-05, 0, 0
    3200, 6.97726e-07, 3.73776e-05, 0, 0
    3300, 6.61257e-07, 3.57147e-05, 0, 0
    3400, 6.26679e-07, 3.41175e-05, 0, 0
    3500, 5.93348e-07, 3.26193e-05, 0, 0
    3600, 5.62965e-07, 3.11036e-05, 0, 0
    3700, 5.33181e-07, 2.97281e-05, 0, 0
    3800, 5.05441e-07, 2.83431e-05, 0, 0
    3900, 4.78984e-07, 2.70505e-05, 0, 0
    4000, 4.53697e-07, 2.58442e-05, 0, 0
    4100, 4.29955e-07, 2.46557e-05, 0, 0
    4200, 4.07436e-07, 2.35286e-05, 0, 0
    4300, 3.86376e-07, 2.24242e-05, 0, 0
    4400, 3.65924e-07, 2.13982e-05, 0, 0
    4500, 3.46757e-07, 2.04061e-05, 0, 0
    4600, 3.28595e-07, 1.94584e-05, 0, 0
    4700, 3.11381e-07, 1.85532e-05, 0, 0
    4800, 2.95065e-07, 1.76886e-05, 0, 0
    4900, 2.79916e-07, 1.68756e-05, 0, 0
    5000, 2.65408e-07, 1.61296e-05, 0, 0
    5100, 2.4966e-07, 1.53206e-05, 0, 0
    5200, 2.36224e-07, 1.46264e-05, 0, 0
    5300, 2.25771e-07, 1.39504e-05, 0, 0
    5400, 2.13256e-07, 1.34905e-05, 0, 0
    5500, 1.99435e-07, 1.26279e-05, 0, 0
    5600, 1.88938e-07, 1.20287e-05, 0, 0
    5700, 1.80074e-07, 1.16287e-05, 0, 0
    5800, 1.70792e-07, 1.10779e-05, 0, 0
    5900, 1.61839e-07, 1.05474e-05, 0, 0
    6000, 1.53389e-07, 1.00419e-05, 0, 0
    6100, 1.45399e-07, 9.56009e-06, 0, 0
    6200, 1.37588e-07, 9.09551e-06, 0, 0
    6300, 1.30016e-07, 8.64577e-06, 0, 0
    6400, 1.23192e-07, 8.2258e-06, 0, 0
    6500, 1.16757e-07, 7.82846e-06, 0, 0
    6600, 1.10673e-07, 7.45097e-06, 0, 0
    6700, 1.04919e-07, 7.09166e-06, 0, 0
    6800, 9.9326e-08, 6.73871e-06, 0, 0
    6900, 9.44491e-08, 6.42808e-06, 0, 0
    7000, 8.93052e-08, 6.12034e-06, 0, 0
    7100, 8.46239e-08, 5.82408e-06, 0, 0
    7200, 8.03685e-08, 5.54085e-06, 0, 0
    7300, 7.6058e-08, 5.27524e-06, 0, 0
    7400, 7.21296e-08, 5.01872e-06, 0, 0
    7500, 6.85558e-08, 4.77323e-06, 0, 0
    7600, 6.48895e-08, 4.54571e-06, 0, 0
    7700, 6.16034e-08, 4.32555e-06, 0, 0
    7800, 5.84503e-08, 4.11504e-06, 0, 0
    7900, 5.54497e-08, 3.91661e-06, 0, 0
    8000, 5.26152e-08, 3.72811e-06, 0, 0
    8100, 4.99269e-08, 3.54875e-06, 0, 0
    8200, 4.73782e-08, 3.37808e-06, 0, 0
    8300, 4.49624e-08, 3.21568e-06, 0, 0
    8400, 4.26704e-08, 3.06115e-06, 0, 0
    8500, 4.04958e-08, 2.91411e-06, 0, 0
    8600, 3.84338e-08, 2.7742e-06, 0, 0
    8700, 3.64765e-08, 2.64107e-06, 0, 0
    8800, 3.46181e-08, 2.51439e-06, 0, 0
    8900, 3.28533e-08, 2.39384e-06, 0, 0
    9000, 3.1178e-08, 2.27914e-06, 0, 0
    9100, 2.95883e-08, 2.16999e-06, 0, 0
    9200, 2.80813e-08, 2.06613e-06, 0, 0
    9300, 2.66527e-08, 1.9673e-06, 0, 0
    9400, 2.52967e-08, 1.87325e-06, 0, 0
    9500, 2.40116e-08, 1.78375e-06, 0, 0
    9600, 2.27929e-08, 1.69859e-06, 0, 0
    9700, 2.16363e-08, 1.61755e-06, 0, 0
    9800, 2.05386e-08, 1.54043e-06, 0, 0
    9900, 1.94964e-08, 1.46704e-06, 0, 0
    10000, 1.85127e-08, 1.3972e-06, 0, 0
    10100, 1.75819e-08, 1.33074e-06, 0, 0
    10200, 1.66973e-08, 1.2675e-06, 0, 0
    10300, 1.58569e-08, 1.20731e-06, 0, 0
    10400, 1.50585e-08, 1.15003e-06, 0, 0
    10500, 1.43002e-08, 1.09553e-06, 0, 0
    10600, 1.35748e-08, 1.04228e-06, 0, 0
    10700, 1.29021e-08, 9.92746e-07, 0, 0
    10800, 1.2248e-08, 9.46082e-07, 0, 0
    10900, 1.16282e-08, 9.01536e-07, 0, 0
    11000, 1.10397e-08, 8.59144e-07, 0, 0
    11100, 1.04707e-08, 8.17647e-07, 0, 0
    The solver residual has converged
    11186, 9.99244e-09, 7.83317e-07, 0, 0

Moving the mesh to the deformed configuration

Max sigmaEq (von Mises stress) = 1.07885e+06
ExecutionTime = 144.67 s  ClockTime = 144 s

Jacobian determinant max. 1.00582 min. 0.987366

Time = 15

Evolving solid solver
Solving the updated Lagrangian form of the momentum equation for DD
    Corr, res, relRes, matRes, iters
    100, 9.02018e-05, 0.0214477, 0, 0
    200, 5.0108e-05, 0.0222646, 0, 0
    300, 1.3518e-05, 0.00290727, 0, 0
    400, 5.80341e-06, 0.00154245, 0, 0
    500, 3.065e-06, 0.000646416, 0, 0
    600, 2.03025e-06, 0.000288711, 0, 0
    700, 2.04863e-06, 0.000379764, 0, 0
    800, 1.72391e-06, 0.000393526, 0, 0
    900, 1.68175e-06, 0.000291454, 0, 0
    1000, 1.53353e-06, 0.000213376, 0, 0
    1100, 1.45533e-06, 0.000114824, 0, 0
    1200, 1.35279e-06, 6.41563e-05, 0, 0
    1300, 1.26241e-06, 7.1721e-05, 0, 0
    1400, 1.19065e-06, 6.82478e-05, 0, 0
    1500, 1.12672e-06, 6.48775e-05, 0, 0
[...]
    3200, 5.00185e-07, 3.2605e-05, 0, 0
    3300, 4.77388e-07, 3.03913e-05, 0, 0
    3400, 4.56096e-07, 2.89795e-05, 0, 0
    3500, 4.34439e-07, 2.84085e-05, 0, 0
    3600, 4.16061e-07, 2.64435e-05, 0, 0
    3700, 3.97266e-07, 2.53031e-05, 0, 0
    3800, 3.8011e-07, 2.4193e-05, 0, 0
    3900, 3.63364e-07, 2.3171e-05, 0, 0
    4000, 3.4806e-07, 2.27136e-05, 0, 0
    4100, 3.33475e-07, 2.17344e-05, 0, 0
    4200, 3.19558e-07, 2.02887e-05, 0, 0
    4300, 3.06797e-07, 1.93877e-05, 0, 0
    4400, 2.94068e-07, 1.85546e-05, 0, 0
    4500, 2.81908e-07, 1.77656e-05, 0, 0
    4600, 2.70821e-07, 1.69998e-05, 0, 0
    4700, 2.59942e-07, 1.62552e-05, 0, 0
    4800, 2.4927e-07, 1.55749e-05, 0, 0
    4900, 2.38357e-07, 1.53719e-05, 0, 0
    5000, 2.28646e-07, 1.47335e-05, 0, 0
    5100, 2.19364e-07, 1.41174e-05, 0, 0
    5200, 2.10744e-07, 1.35238e-05, 0, 0
    5300, 2.02272e-07, 1.29573e-05, 0, 0
    5400, 1.9418e-07, 1.24193e-05, 0, 0
    5500, 1.86435e-07, 1.19071e-05, 0, 0
    5600, 1.79416e-07, 1.1089e-05, 0, 0
    5700, 1.72254e-07, 1.06306e-05, 0, 0
    5800, 1.65407e-07, 1.0193e-05, 0, 0
    5900, 1.58555e-07, 9.78356e-06, 0, 0
    6000, 1.52298e-07, 9.38128e-06, 0, 0
    6100, 1.45967e-07, 9.25633e-06, 0, 0
    6200, 1.40601e-07, 8.61702e-06, 0, 0
    6300, 1.35064e-07, 8.26416e-06, 0, 0
    6400, 1.29433e-07, 8.15407e-06, 0, 0
    6500, 1.24115e-07, 7.83296e-06, 0, 0
    6600, 1.19411e-07, 7.29564e-06, 0, 0
    6700, 1.14566e-07, 7.19721e-06, 0, 0
    6800, 1.10172e-07, 6.71294e-06, 0, 0
    6900, 1.05653e-07, 6.62136e-06, 0, 0
    7000, 1.0166e-07, 6.17543e-06, 0, 0
    7100, 9.75281e-08, 6.09149e-06, 0, 0
    7200, 9.38001e-08, 5.68236e-06, 0, 0
    7300, 9.02571e-08, 5.44386e-06, 0, 0
    7400, 8.64436e-08, 5.37891e-06, 0, 0
    7500, 8.31755e-08, 5.01373e-06, 0, 0
    7600, 8.00293e-08, 4.80375e-06, 0, 0
    7700, 7.66856e-08, 4.7467e-06, 0, 0
    7800, 7.36348e-08, 4.55331e-06, 0, 0
    7900, 7.07551e-08, 4.36773e-06, 0, 0
    8000, 6.80633e-08, 4.07571e-06, 0, 0
    8100, 6.53727e-08, 3.90986e-06, 0, 0
    8200, 6.27053e-08, 3.8585e-06, 0, 0
    8300, 6.03429e-08, 3.59746e-06, 0, 0
    8400, 5.81167e-08, 3.44629e-06, 0, 0
    8500, 5.58221e-08, 3.30502e-06, 0, 0
    8600, 5.36511e-08, 3.17123e-06, 0, 0
    8700, 5.13721e-08, 3.13539e-06, 0, 0
    8800, 4.93617e-08, 3.00797e-06, 0, 0
    8900, 4.75978e-08, 2.79896e-06, 0, 0
    9000, 4.5588e-08, 2.76782e-06, 0, 0
    9100, 4.37875e-08, 2.65549e-06, 0, 0
    9200, 4.21766e-08, 2.475e-06, 0, 0
    9300, 4.05219e-08, 2.37531e-06, 0, 0
    9400, 3.88574e-08, 2.34402e-06, 0, 0
    9500, 3.73562e-08, 2.24861e-06, 0, 0
    9600, 3.59915e-08, 2.09387e-06, 0, 0
    9700, 3.45911e-08, 2.00968e-06, 0, 0
    9800, 3.31721e-08, 1.9298e-06, 0, 0
    9900, 3.1833e-08, 1.85462e-06, 0, 0
    10000, 3.05849e-08, 1.82755e-06, 0, 0
    10100, 2.94783e-08, 1.70146e-06, 0, 0
    10200, 2.82795e-08, 1.63442e-06, 0, 0
    10300, 2.71704e-08, 1.5682e-06, 0, 0
    10400, 2.60723e-08, 1.54808e-06, 0, 0
    10500, 2.51263e-08, 1.44116e-06, 0, 0
    10600, 2.41488e-08, 1.38325e-06, 0, 0
    10700, 2.3158e-08, 1.32828e-06, 0, 0
    10800, 2.22215e-08, 1.31139e-06, 0, 0
    10900, 2.14138e-08, 1.22067e-06, 0, 0
    11000, 2.05338e-08, 1.17222e-06, 0, 0
    11100, 1.97233e-08, 1.12482e-06, 0, 0
    11200, 1.8925e-08, 1.11052e-06, 0, 0
    11300, 1.81816e-08, 1.06638e-06, 0, 0
    11400, 1.75183e-08, 9.9161e-07, 0, 0
    11500, 1.6809e-08, 9.52499e-07, 0, 0
    11600, 1.61491e-08, 9.13814e-07, 0, 0
    11700, 1.55172e-08, 8.76413e-07, 0, 0
    11800, 1.48925e-08, 8.65006e-07, 0, 0
    11900, 1.43273e-08, 8.05855e-07, 0, 0
    12000, 1.37796e-08, 7.7212e-07, 0, 0
    12100, 1.32104e-08, 7.41669e-07, 0, 0
    12200, 1.26829e-08, 7.3263e-07, 0, 0
    12300, 1.21933e-08, 6.82795e-07, 0, 0
    12400, 1.17e-08, 6.74428e-07, 0, 0
    12500, 1.12413e-08, 6.47612e-07, 0, 0
    12600, 1.0832e-08, 6.02025e-07, 0, 0
    12700, 1.04083e-08, 5.77519e-07, 0, 0
    The solver residual has converged
    12795, 9.99438e-09, 5.7309e-07, 0, 0

Moving the mesh to the deformed configuration

Max sigmaEq (von Mises stress) = 3.35808e+06
ExecutionTime = 280.56 s  ClockTime = 280 s

Jacobian determinant max. 1.0146 min. 0.988367

Time = 28

Evolving solid solver
Solving the updated Lagrangian form of the momentum equation for DD
    Corr, res, relRes, matRes, iters
    100, 0.00021093, 0.0249247, 0, 0
    200, 6.21879e-05, 0.0155622, 0, 0
    300, 1.92371e-05, 0.00218827, 0, 0
    400, 9.43397e-06, 0.00312403, 0, 0
    500, 4.41712e-06, 0.000587521, 0, 0
    600, 3.62398e-06, 0.00049016, 0, 0
    700, 3.20365e-06, 0.000246271, 0, 0
    800, 2.9262e-06, 0.000123621, 0, 0
    900, 2.72256e-06, 0.000107715, 0, 0
    1000, 2.5334e-06, 9.23534e-05, 0, 0
    1100, 2.35325e-06, 7.82406e-05, 0, 0
    1200, 2.18847e-06, 6.63397e-05, 0, 0
    1300, 2.0338e-06, 5.99247e-05, 0, 0
    1400, 1.89908e-06, 5.49072e-05, 0, 0
    1500, 1.77564e-06, 5.06648e-05, 0, 0
    1600, 1.65703e-06, 4.71484e-05, 0, 0
    1700, 1.54327e-06, 4.49153e-05, 0, 0
    1800, 1.45642e-06, 4.06335e-05, 0, 0
    1900, 1.36392e-06, 3.93266e-05, 0, 0
    2000, 1.28259e-06, 3.71775e-05, 0, 0
    2100, 1.20642e-06, 3.51742e-05, 0, 0
    2200, 1.13643e-06, 3.34482e-05, 0, 0
    2300, 1.06993e-06, 3.17339e-05, 0, 0
    2400, 1.00762e-06, 3.00781e-05, 0, 0
    2500, 9.49604e-07, 2.85958e-05, 0, 0
    2600, 8.963e-07, 2.70757e-05, 0, 0
    2700, 8.46147e-07, 2.57085e-05, 0, 0
    2800, 7.98915e-07, 2.4558e-05, 0, 0
    2900, 7.55095e-07, 2.32e-05, 0, 0
    3000, 7.13864e-07, 2.23533e-05, 0, 0
    3100, 6.75313e-07, 2.13618e-05, 0, 0
    3200, 6.40222e-07, 2.03739e-05, 0, 0
    3300, 6.06358e-07, 1.94274e-05, 0, 0
    3400, 5.7426e-07, 1.85087e-05, 0, 0
    3500, 5.44015e-07, 1.76244e-05, 0, 0
    3600, 5.15508e-07, 1.6772e-05, 0, 0
    3700, 4.88615e-07, 1.59511e-05, 0, 0
    3800, 4.63255e-07, 1.51613e-05, 0, 0
    3900, 4.39303e-07, 1.44023e-05, 0, 0
    4000, 4.16683e-07, 1.36739e-05, 0, 0
    4100, 3.95299e-07, 1.29758e-05, 0, 0
    4200, 3.74255e-07, 1.22059e-05, 0, 0
    4300, 3.5502e-07, 1.16694e-05, 0, 0
    4400, 3.36534e-07, 1.10506e-05, 0, 0
    4500, 3.19375e-07, 1.04635e-05, 0, 0
    4600, 3.03181e-07, 9.90732e-06, 0, 0
    4700, 2.87872e-07, 9.3783e-06, 0, 0
    4800, 2.7341e-07, 8.87482e-06, 0, 0
    4900, 2.59717e-07, 8.39616e-06, 0, 0
    5000, 2.46757e-07, 7.94135e-06, 0, 0
    5100, 2.34507e-07, 7.50947e-06, 0, 0
    5200, 2.22906e-07, 7.0996e-06, 0, 0
    5300, 2.11912e-07, 6.71081e-06, 0, 0
    5400, 2.01488e-07, 6.34218e-06, 0, 0
    5500, 1.916e-07, 5.99335e-06, 0, 0
    5600, 1.82227e-07, 5.66695e-06, 0, 0
    5700, 1.73261e-07, 5.32892e-06, 0, 0
    5800, 1.64886e-07, 5.04302e-06, 0, 0
    5900, 1.56932e-07, 4.77069e-06, 0, 0
    6000, 1.4936e-07, 4.51157e-06, 0, 0
    6100, 1.42159e-07, 4.26546e-06, 0, 0
    6200, 1.35312e-07, 4.03191e-06, 0, 0
    6300, 1.28799e-07, 3.81042e-06, 0, 0
    6400, 1.22608e-07, 3.60049e-06, 0, 0
    6500, 1.16721e-07, 3.40159e-06, 0, 0
    6600, 1.11124e-07, 3.21323e-06, 0, 0
    6700, 1.05801e-07, 3.03489e-06, 0, 0
    6800, 1.00742e-07, 2.8661e-06, 0, 0
    6900, 9.59303e-08, 2.70639e-06, 0, 0
    7000, 9.13533e-08, 2.55531e-06, 0, 0
    7100, 8.69997e-08, 2.41241e-06, 0, 0
    7200, 8.28586e-08, 2.27729e-06, 0, 0
    7300, 7.89494e-08, 2.14936e-06, 0, 0
    7400, 7.51752e-08, 2.03068e-06, 0, 0
    7500, 7.15422e-08, 1.92022e-06, 0, 0
    7600, 6.81438e-08, 1.81449e-06, 0, 0
    7700, 6.49667e-08, 1.7118e-06, 0, 0
    7800, 6.19037e-08, 1.61704e-06, 0, 0
    7900, 5.89792e-08, 1.52611e-06, 0, 0
    8000, 5.62175e-08, 1.43206e-06, 0, 0
    8100, 5.35614e-08, 1.37184e-06, 0, 0
    8200, 5.10253e-08, 1.31534e-06, 0, 0
    8300, 4.8648e-08, 1.25965e-06, 0, 0
    8400, 4.63815e-08, 1.20648e-06, 0, 0
    8500, 4.42221e-08, 1.1555e-06, 0, 0
    8600, 4.21653e-08, 1.10673e-06, 0, 0
    8700, 4.02105e-08, 1.05994e-06, 0, 0
    8800, 3.8354e-08, 1.01462e-06, 0, 0
    8900, 3.65435e-08, 9.73297e-07, 0, 0
    9000, 3.48668e-08, 9.31988e-07, 0, 0
    9100, 3.32709e-08, 8.9171e-07, 0, 0
    9200, 3.17229e-08, 8.54748e-07, 0, 0
    9300, 3.02607e-08, 8.18916e-07, 0, 0
    9400, 2.8864e-08, 7.84514e-07, 0, 0
    9500, 2.75349e-08, 7.51585e-07, 0, 0
    9600, 2.62686e-08, 7.20059e-07, 0, 0
    9700, 2.50623e-08, 6.89888e-07, 0, 0
    9800, 2.3915e-08, 6.60995e-07, 0, 0
    9900, 2.2809e-08, 6.33753e-07, 0, 0
    10000, 2.17738e-08, 6.06852e-07, 0, 0
    10100, 2.07712e-08, 5.81882e-07, 0, 0
    10200, 1.98306e-08, 5.57204e-07, 0, 0
    10300, 1.89321e-08, 5.3367e-07, 0, 0
    10400, 1.806e-08, 5.12047e-07, 0, 0
    10500, 1.72405e-08, 4.90692e-07, 0, 0
    10600, 1.64647e-08, 4.69847e-07, 0, 0
    10700, 1.57102e-08, 4.50556e-07, 0, 0
    10800, 1.49982e-08, 4.31878e-07, 0, 0
    10900, 1.43192e-08, 4.13775e-07, 0, 0
    11000, 1.36737e-08, 3.96564e-07, 0, 0
    11100, 1.30581e-08, 3.80051e-07, 0, 0
    11200, 1.24707e-08, 3.64239e-07, 0, 0
    11300, 1.19107e-08, 3.49096e-07, 0, 0
    11400, 1.13766e-08, 3.34595e-07, 0, 0
    11500, 1.08655e-08, 3.20818e-07, 0, 0
    11600, 1.03901e-08, 3.06973e-07, 0, 0
    The solver residual has converged
    11683, 9.99679e-09, 2.9667e-07, 0, 0

Moving the mesh to the deformed configuration

Max sigmaEq (von Mises stress) = 3.62429e+06
ExecutionTime = 290.54 s  ClockTime = 290 s

Jacobian determinant max. 1.00838 min. 0.98925

Time = 29

Evolving solid solver
Solving the updated Lagrangian form of the momentum equation for DD
    Corr, res, relRes, matRes, iters
    100, 0.000135208, 0.0305461, 0, 0
    200, 5.59674e-05, 0.0159664, 0, 0
    300, 1.7124e-05, 0.00262662, 0, 0
    400, 7.53171e-06, 0.00263216, 0, 0
    500, 3.18224e-06, 0.00134052, 0, 0
    600, 2.75803e-06, 0.000213293, 0, 0
    700, 2.37305e-06, 0.000105876, 0, 0
    800, 2.1726e-06, 9.52828e-05, 0, 0
    900, 1.9707e-06, 8.96728e-05, 0, 0
    1000, 1.7997e-06, 8.47041e-05, 0, 0
    1100, 1.64752e-06, 8.00443e-05, 0, 0
    1200, 1.51388e-06, 7.49927e-05, 0, 0
    1300, 1.39819e-06, 7.10927e-05, 0, 0
    1400, 1.29045e-06, 6.7394e-05, 0, 0
    1500, 1.19401e-06, 6.39217e-05, 0, 0
    1600, 1.10837e-06, 6.06697e-05, 0, 0
    1700, 1.03269e-06, 5.76589e-05, 0, 0
    1800, 9.6408e-07, 5.48052e-05, 0, 0
    1900, 9.01656e-07, 5.21273e-05, 0, 0
    2000, 8.45191e-07, 4.96107e-05, 0, 0
    2100, 7.94909e-07, 4.72521e-05, 0, 0
    2200, 7.49713e-07, 4.49811e-05, 0, 0
    2300, 7.08448e-07, 4.29035e-05, 0, 0
    2400, 6.70697e-07, 4.09358e-05, 0, 0
    2500, 6.36005e-07, 3.90757e-05, 0, 0
    2600, 6.03743e-07, 3.73174e-05, 0, 0
    2700, 5.73559e-07, 3.56491e-05, 0, 0
    2800, 5.45391e-07, 3.40689e-05, 0, 0
    2900, 5.18943e-07, 3.25693e-05, 0, 0
    3000, 4.9411e-07, 3.1145e-05, 0, 0
    3100, 4.70715e-07, 2.97912e-05, 0, 0
    3200, 4.48638e-07, 2.85033e-05, 0, 0
    3300, 4.27949e-07, 2.76124e-05, 0, 0
    3400, 4.09576e-07, 2.59113e-05, 0, 0
    3500, 3.90462e-07, 2.4836e-05, 0, 0
    3600, 3.73115e-07, 2.42254e-05, 0, 0
    3700, 3.56877e-07, 2.32036e-05, 0, 0
    3800, 3.41481e-07, 2.22277e-05, 0, 0
    3900, 3.27039e-07, 2.08952e-05, 0, 0
    4000, 3.14122e-07, 1.9997e-05, 0, 0
    4100, 3.00784e-07, 1.95478e-05, 0, 0
    4200, 2.88804e-07, 1.83733e-05, 0, 0
    4300, 2.7685e-07, 1.79552e-05, 0, 0
    4400, 2.66143e-07, 1.6864e-05, 0, 0
    4500, 2.55114e-07, 1.64925e-05, 0, 0
    4600, 2.45469e-07, 1.54886e-05, 0, 0
    4700, 2.35299e-07, 1.48666e-05, 0, 0
    4800, 2.25751e-07, 1.45575e-05, 0, 0
    4900, 2.17439e-07, 1.36631e-05, 0, 0
    5000, 2.08621e-07, 1.33686e-05, 0, 0
    5100, 2.00804e-07, 1.2557e-05, 0, 0
    5200, 1.92549e-07, 1.20602e-05, 0, 0
    5300, 1.84841e-07, 1.18104e-05, 0, 0
    5400, 1.77837e-07, 1.10925e-05, 0, 0
    5500, 1.70694e-07, 1.08658e-05, 0, 0
    5600, 1.6451e-07, 1.02026e-05, 0, 0
    5700, 1.57688e-07, 9.99771e-06, 0, 0
    5800, 1.51999e-07, 9.38865e-06, 0, 0
    5900, 1.45951e-07, 9.18773e-06, 0, 0
    6000, 1.40442e-07, 8.64058e-06, 0, 0
    6100, 1.34855e-07, 8.45578e-06, 0, 0
    6200, 1.29764e-07, 7.95296e-06, 0, 0
    6300, 1.24602e-07, 7.7834e-06, 0, 0
    6400, 1.19902e-07, 7.32075e-06, 0, 0
    6500, 1.14926e-07, 7.17495e-06, 0, 0
    6600, 1.10841e-07, 6.73745e-06, 0, 0
    6700, 1.06226e-07, 6.6057e-06, 0, 0
    6800, 1.0227e-07, 6.20655e-06, 0, 0
    6900, 9.82088e-08, 6.08154e-06, 0, 0
    7000, 9.45263e-08, 5.71376e-06, 0, 0
    7100, 9.10708e-08, 5.47594e-06, 0, 0
    7200, 8.73582e-08, 5.36553e-06, 0, 0
    7300, 8.40895e-08, 5.04674e-06, 0, 0
    7400, 8.06058e-08, 4.94698e-06, 0, 0
    7500, 7.75992e-08, 4.64861e-06, 0, 0
    7600, 7.47536e-08, 4.45563e-06, 0, 0
    7700, 7.17113e-08, 4.28133e-06, 0, 0
    7800, 6.90241e-08, 4.10611e-06, 0, 0
    7900, 6.61593e-08, 4.0249e-06, 0, 0
    8000, 6.36906e-08, 3.78245e-06, 0, 0
    8100, 6.11509e-08, 3.70657e-06, 0, 0
    8200, 5.88491e-08, 3.48383e-06, 0, 0
    8300, 5.66451e-08, 3.34128e-06, 0, 0
    8400, 5.43924e-08, 3.27052e-06, 0, 0
    8500, 5.23642e-08, 3.07611e-06, 0, 0
    8600, 5.0193e-08, 3.01624e-06, 0, 0
    8700, 4.83043e-08, 2.83436e-06, 0, 0
    8800, 4.65341e-08, 2.71653e-06, 0, 0
    8900, 4.46331e-08, 2.66198e-06, 0, 0
    9000, 4.29614e-08, 2.50412e-06, 0, 0
    9100, 4.11749e-08, 2.45483e-06, 0, 0
    9200, 3.96365e-08, 2.30696e-06, 0, 0
    9300, 3.81858e-08, 2.21119e-06, 0, 0
    9400, 3.66324e-08, 2.12489e-06, 0, 0
    9500, 3.52966e-08, 2.03598e-06, 0, 0
    9600, 3.38583e-08, 1.99513e-06, 0, 0
    9700, 3.25966e-08, 1.87674e-06, 0, 0
    9800, 3.12427e-08, 1.83993e-06, 0, 0
    9900, 3.01366e-08, 1.72786e-06, 0, 0
    10000, 2.88776e-08, 1.69453e-06, 0, 0
    10100, 2.77872e-08, 1.59292e-06, 0, 0
    10200, 2.67778e-08, 1.52624e-06, 0, 0
    10300, 2.5686e-08, 1.46626e-06, 0, 0
    10400, 2.47442e-08, 1.40539e-06, 0, 0
    10500, 2.37377e-08, 1.35056e-06, 0, 0
    10600, 2.28704e-08, 1.29392e-06, 0, 0
    10700, 2.19381e-08, 1.268e-06, 0, 0
    10800, 2.112e-08, 1.19271e-06, 0, 0
    10900, 2.0277e-08, 1.16752e-06, 0, 0
    11000, 1.95337e-08, 1.097e-06, 0, 0
    11100, 1.87254e-08, 1.05515e-06, 0, 0
    11200, 1.80338e-08, 1.01071e-06, 0, 0
    11300, 1.7273e-08, 9.92323e-07, 0, 0
    11400, 1.66307e-08, 9.32202e-07, 0, 0
    11500, 1.59695e-08, 9.13496e-07, 0, 0
    11600, 1.53728e-08, 8.58116e-07, 0, 0
    11700, 1.48091e-08, 8.22446e-07, 0, 0
    11800, 1.42099e-08, 7.90313e-07, 0, 0
    11900, 1.36877e-08, 7.57256e-07, 0, 0
    12000, 1.31327e-08, 7.27671e-07, 0, 0
    12100, 1.26417e-08, 6.9701e-07, 0, 0
    12200, 1.21298e-08, 6.83383e-07, 0, 0
    12300, 1.16781e-08, 6.42582e-07, 0, 0
    12400, 1.12158e-08, 6.29148e-07, 0, 0
    12500, 1.07916e-08, 5.90204e-07, 0, 0
    12600, 1.035e-08, 5.67262e-07, 0, 0
    The solver residual has converged
    12687, 9.99899e-09, 5.58827e-07, 0, 0

Moving the mesh to the deformed configuration

Max sigmaEq (von Mises stress) = 3.91119e+06
ExecutionTime = 301.65 s  ClockTime = 301 s

Jacobian determinant max. 1.01578 min. 0.988522

Time = 30

Evolving solid solver
Solving the updated Lagrangian form of the momentum equation for DD
    Corr, res, relRes, matRes, iters
    100, 0.000168305, 0.0118894, 0, 0
    200, 4.18237e-05, 0.0126792, 0, 0
    300, 1.4827e-05, 0.00160293, 0, 0
    400, 5.89464e-06, 0.000699025, 0, 0
    500, 3.75394e-06, 0.000733926, 0, 0
    600, 3.24261e-06, 0.000352233, 0, 0
    700, 2.89894e-06, 0.000109747, 0, 0
    800, 2.66794e-06, 8.80085e-05, 0, 0
    900, 2.46539e-06, 7.74276e-05, 0, 0
    1000, 2.28938e-06, 6.66889e-05, 0, 0
    1100, 2.11838e-06, 5.96282e-05, 0, 0
    1200, 1.96466e-06, 5.39186e-05, 0, 0
    1300, 1.82082e-06, 4.97811e-05, 0, 0
    1400, 1.69363e-06, 4.70257e-05, 0, 0
    1500, 1.57637e-06, 4.38042e-05, 0, 0
    1600, 1.47102e-06, 4.10693e-05, 0, 0
    1700, 1.37292e-06, 3.85057e-05, 0, 0
    1800, 1.28285e-06, 3.61574e-05, 0, 0
    1900, 1.19972e-06, 3.40664e-05, 0, 0
    2000, 1.12213e-06, 3.20754e-05, 0, 0
    2100, 1.05081e-06, 3.02129e-05, 0, 0
    2200, 9.84735e-07, 2.85128e-05, 0, 0
    2300, 9.23741e-07, 2.7121e-05, 0, 0
    2400, 8.66338e-07, 2.58325e-05, 0, 0
    2500, 8.13971e-07, 2.45628e-05, 0, 0
    2600, 7.64992e-07, 2.33773e-05, 0, 0
    2700, 7.19604e-07, 2.22282e-05, 0, 0
    2800, 6.77218e-07, 2.11234e-05, 0, 0
    2900, 6.37659e-07, 2.00674e-05, 0, 0
    3000, 6.00708e-07, 1.90565e-05, 0, 0
    3100, 5.66161e-07, 1.80887e-05, 0, 0
    3200, 5.33923e-07, 1.71626e-05, 0, 0
    3300, 5.03772e-07, 1.6277e-05, 0, 0
    3400, 4.75556e-07, 1.54307e-05, 0, 0
    3500, 4.49117e-07, 1.46226e-05, 0, 0
    3600, 4.2436e-07, 1.38517e-05, 0, 0
    3700, 4.01138e-07, 1.31163e-05, 0, 0
    3800, 3.79334e-07, 1.24164e-05, 0, 0
    3900, 3.58886e-07, 1.17501e-05, 0, 0
    4000, 3.39898e-07, 1.10209e-05, 0, 0
    4100, 3.20627e-07, 1.0509e-05, 0, 0
    4200, 3.03673e-07, 9.96161e-06, 0, 0
    4300, 2.87738e-07, 9.4375e-06, 0, 0
    4400, 2.7269e-07, 8.93857e-06, 0, 0
    4500, 2.58508e-07, 8.46253e-06, 0, 0
    4600, 2.45145e-07, 8.00948e-06, 0, 0
    4700, 2.32584e-07, 7.57874e-06, 0, 0
    4800, 2.20789e-07, 7.16945e-06, 0, 0
    4900, 2.09721e-07, 6.7808e-06, 0, 0
    5000, 1.99297e-07, 6.41196e-06, 0, 0
    5100, 1.8946e-07, 6.07168e-06, 0, 0
    5200, 1.80251e-07, 5.74147e-06, 0, 0
    5300, 1.71599e-07, 5.32957e-06, 0, 0
    5400, 1.63223e-07, 5.14103e-06, 0, 0
    5500, 1.5552e-07, 4.8615e-06, 0, 0
    5600, 1.48168e-07, 4.51199e-06, 0, 0
    5700, 1.41138e-07, 4.26576e-06, 0, 0
    5800, 1.34471e-07, 4.03242e-06, 0, 0
    5900, 1.28053e-07, 3.81415e-06, 0, 0
    6000, 1.22049e-07, 3.66872e-06, 0, 0
    6100, 1.16254e-07, 3.4686e-06, 0, 0
    6200, 1.10893e-07, 3.21941e-06, 0, 0
    6300, 1.05751e-07, 3.04066e-06, 0, 0
    6400, 1.00782e-07, 2.87269e-06, 0, 0
    6500, 9.60365e-08, 2.75789e-06, 0, 0
    6600, 9.16167e-08, 2.56357e-06, 0, 0
    6700, 8.73631e-08, 2.45655e-06, 0, 0
    6800, 8.3354e-08, 2.2847e-06, 0, 0
    6900, 7.95016e-08, 2.17356e-06, 0, 0
    7000, 7.58403e-08, 2.08852e-06, 0, 0
    7100, 7.23564e-08, 2.00644e-06, 0, 0
    7200, 6.89955e-08, 1.92852e-06, 0, 0
    7300, 6.5869e-08, 1.85147e-06, 0, 0
    7400, 6.28032e-08, 1.77999e-06, 0, 0
    7500, 5.99413e-08, 1.70979e-06, 0, 0
    7600, 5.72188e-08, 1.64136e-06, 0, 0
    7700, 5.46191e-08, 1.57692e-06, 0, 0
    7800, 5.21118e-08, 1.51524e-06, 0, 0
    7900, 4.97538e-08, 1.45533e-06, 0, 0
    8000, 4.74729e-08, 1.3989e-06, 0, 0
    8100, 4.53553e-08, 1.34241e-06, 0, 0
    8200, 4.32847e-08, 1.29004e-06, 0, 0
    8300, 4.13163e-08, 1.23995e-06, 0, 0
    8400, 3.94648e-08, 1.19048e-06, 0, 0
    8500, 3.76937e-08, 1.1437e-06, 0, 0
    8600, 3.6002e-08, 1.09867e-06, 0, 0
    8700, 3.43827e-08, 1.05535e-06, 0, 0
    8800, 3.28391e-08, 1.01404e-06, 0, 0
    8900, 3.13654e-08, 9.74542e-07, 0, 0
    9000, 2.99837e-08, 9.3532e-07, 0, 0
    9100, 2.86468e-08, 8.98565e-07, 0, 0
    9200, 2.7373e-08, 8.63248e-07, 0, 0
    9300, 2.61548e-08, 8.29774e-07, 0, 0
    9400, 2.4999e-08, 7.9676e-07, 0, 0
    9500, 2.38919e-08, 7.65544e-07, 0, 0
    9600, 2.28233e-08, 7.36195e-07, 0, 0
    9700, 2.18337e-08, 7.06614e-07, 0, 0
    9800, 2.08618e-08, 6.79559e-07, 0, 0
    9900, 1.9946e-08, 6.53064e-07, 0, 0
    10000, 1.90709e-08, 6.27568e-07, 0, 0
    10100, 1.82454e-08, 6.02691e-07, 0, 0
    10200, 1.74346e-08, 5.80164e-07, 0, 0
    10300, 1.66701e-08, 5.57343e-07, 0, 0
    10400, 1.59565e-08, 5.35401e-07, 0, 0
    10500, 1.52576e-08, 5.14532e-07, 0, 0
    10600, 1.45929e-08, 4.93989e-07, 0, 0
    10700, 1.39648e-08, 4.73314e-07, 0, 0
    10800, 1.33599e-08, 4.56625e-07, 0, 0
    10900, 1.27635e-08, 4.38501e-07, 0, 0
    11000, 1.22171e-08, 4.21055e-07, 0, 0
    11100, 1.16922e-08, 4.04507e-07, 0, 0
    11200, 1.11902e-08, 3.88593e-07, 0, 0
    11300, 1.07114e-08, 3.73405e-07, 0, 0
    11400, 1.02454e-08, 3.5889e-07, 0, 0
    The solver residual has converged
    11456, 9.99969e-09, 3.51155e-07, 0, 0

Moving the mesh to the deformed configuration

Max sigmaEq (von Mises stress) = 4.22239e+06
ExecutionTime = 311.41 s  ClockTime = 311 s

Jacobian determinant max. 1.00741 min. 0.987494

The momentum equation converged in all time-steps


End

