/*---------------------------------------------------------------------------*\
| =========                 |                                                 |
| \\      /  F ield         | foam-extend: Open Source CFD                    |
|  \\    /   O peration     | Version:     4.1                                |
|   \\  /    A nd           | Web:         http://www.foam-extend.org         |
|    \\/     M anipulation  | For copyright notice see file Copyright         |
\*---------------------------------------------------------------------------*/
Build  : 4.1-70b064d0f326
Exec   : solids4Foam
Date   : Dec 15 2022
Time   : 14:47:00
Host   : "iloliveira"
PID    : 403586
CtrlDict : "/home/iloliveira/foam/solids4foam-fork-fe41/tutorials/solids/hyperelasticity/tests/test1-TLTD/system/controlDict"
Case   : /home/iloliveira/foam/solids4foam-fork-fe41/tutorials/solids/hyperelasticity/tests/test1-TLTD
nProcs : 1
sigFpe : Enabling floating point exception trapping (FOAM_SIGFPE).
allowSystemOperations : Disallowing user-supplied system call operations

// * * * * * * * * * * * * * * * * * * * * * * * * * * * * * * * * * * * * * //
Create time

/*---------------------------------------------------------------------------*\
|    For further information on the solids4Foam toolbox implementations,      |
|    please see the following publications:                                   |
|                                                                             |
|    P. Cardiff, A Karac, P. De Jaeger, H. Jasak, J. Nagy, A. Ivankovic,      |
|    Z. Tukovic: An open-source finite volume toolbox for solid mechanics and |
|    fluid-solid interaction simulations. arXiv:1808.10736v2, 2018, available |
|    at https://arxiv.org/abs/1808.10736.                                     |
|                                                                             |
|    Z. Tukovic, A. Karac, P. Cardiff, H. Jasak, A. Ivankovic: OpenFOAM       |
|    finite volume solver for fluid-solid interaction.  Transactions of       |
|    Famena, 42 (3), pp. 1-31, 2018, 10.21278/TOF.42301.                      |
\*---------------------------------------------------------------------------*/

Selecting physicsModel solidModel
Selecting solidModel nonLinearGeometryTotalLagrangianTotalDisplacement
Selecting dynamicFvMesh staticFvMesh
Creating fixedDisplacement boundary condition
    displacement is time-varying
Symmetry boundary condition with non-orthogonal correction
Symmetry boundary condition with non-orthogonal correction
    under-relaxation method: fixed
Creating the mechanicalModel
Selecting mechanical law MooneyRivlinElastic
    Laplacian equation will be solved for pressure
    pressureSmoothingScaleFactor: 100
Material properties 
    max(c10) = 293000
    max(c01) = 177000
    max(c11) = 0
    max(mu) = 940000
    max(K) = 1.41e+09
Reading individual shadowPatch
    solidContact: topContact
        useNewPointDistanceMethod: false
        projectPointsToPatchBoundary: false
        usePrevCandidateMasterNeighbors: false
    Normal contact model: standardPenalty
    Initialising stored previous normalPenaltyFactors
    Friction contact model: frictionless
    normal penalty factor: 8.63995e+10
Creating displacement function object
    region = region0
    distance from specified point is 0
Creating forceCylinder function object
Creating Jacob function object
Jacobian determinant max. 1 min. 1

Time = 1

Evolving solid solver
Solving the total Lagrangian form of the momentum equation for D
setCellDisplacements: reading cellDisplacements
    Corr, res, relRes, matRes, iters
    100, 0.000252163, 0.00284797, 0, 0
    200, 4.08242e-05, 0.000290203, 0, 0
    300, 3.91764e-05, 0.000635278, 0, 0
    400, 4.07373e-05, 0.000693045, 0, 0
    500, 4.18552e-05, 0.000703778, 0, 0
    600, 4.33651e-05, 0.000706215, 0, 0
    700, 4.5169e-05, 0.000706284, 0, 0
    800, 4.62145e-05, 0.000705041, 0, 0
    900, 4.43792e-05, 0.000702726, 0, 0
    1000, 4.26489e-05, 0.000699559, 0, 0
    1100, 4.09862e-05, 0.000695531, 0, 0
    1200, 3.94032e-05, 0.000690734, 0, 0
    1300, 3.7906e-05, 0.000685231, 0, 0
    1400, 3.64945e-05, 0.000679085, 0, 0
    1500, 3.51985e-05, 0.000672335, 0, 0
    1600, 3.39636e-05, 0.000665101, 0, 0
    1700, 3.27857e-05, 0.000657405, 0, 0
    1800, 3.16542e-05, 0.000649303, 0, 0
    1900, 3.05677e-05, 0.000640854, 0, 0
    2000, 2.95985e-05, 0.00063212, 0, 0
    2100, 2.86872e-05, 0.000623143, 0, 0
    2200, 2.7811e-05, 0.000613978, 0, 0
    2300, 2.71795e-05, 0.000604677, 0, 0
    2400, 2.80705e-05, 0.000595291, 0, 0
    2500, 2.9187e-05, 0.000585851, 0, 0
    2600, 3.04239e-05, 0.000576392, 0, 0
    2700, 3.16915e-05, 0.000566958, 0, 0
    2800, 3.29794e-05, 0.000557578, 0, 0
    2900, 3.42736e-05, 0.000547827, 0, 0
    3000, 3.55548e-05, 0.000537379, 0, 0
    3100, 3.6846e-05, 0.000527119, 0, 0
    3200, 3.80951e-05, 0.000517144, 0, 0
    3300, 3.42956e-05, 0.000224665, 0, 0
    3400, 3.18863e-05, 0.000101324, 0, 0
    3500, 3.29313e-05, 0.00014778, 0, 0
    3600, 2.87082e-05, 7.49486e-05, 0, 0
    3700, 2.62096e-05, 7.41305e-05, 0, 0
    3800, 2.48212e-05, 7.0727e-05, 0, 0
    3900, 2.36602e-05, 6.78208e-05, 0, 0
    4000, 2.258e-05, 6.49941e-05, 0, 0
    4100, 2.16531e-05, 6.22117e-05, 0, 0
    4200, 2.07835e-05, 5.9537e-05, 0, 0
    4300, 1.99624e-05, 5.69375e-05, 0, 0
    4400, 1.91923e-05, 5.44801e-05, 0, 0
    4500, 1.84781e-05, 5.21037e-05, 0, 0
    4600, 1.77553e-05, 4.98476e-05, 0, 0
    4700, 1.7058e-05, 4.76458e-05, 0, 0
    4800, 1.64374e-05, 4.56439e-05, 0, 0
    4900, 1.57862e-05, 4.36216e-05, 0, 0
    5000, 1.52038e-05, 4.17092e-05, 0, 0
    5100, 1.46236e-05, 4.00081e-05, 0, 0
    5200, 1.41015e-05, 3.8306e-05, 0, 0
    5300, 1.36082e-05, 3.68999e-05, 0, 0
    5400, 1.31162e-05, 3.55234e-05, 0, 0
    5500, 1.26355e-05, 3.41212e-05, 0, 0
    5600, 1.2185e-05, 3.29043e-05, 0, 0
    5700, 1.17462e-05, 3.17705e-05, 0, 0
    5800, 1.13305e-05, 3.04414e-05, 0, 0
    5900, 1.09424e-05, 2.93851e-05, 0, 0
    6000, 1.05732e-05, 2.81744e-05, 0, 0
    6100, 1.02133e-05, 2.71051e-05, 0, 0
    6200, 9.86782e-06, 2.60742e-05, 0, 0
    6300, 9.54263e-06, 2.50783e-05, 0, 0
    6400, 9.23029e-06, 2.41169e-05, 0, 0
    6500, 8.93053e-06, 2.31917e-05, 0, 0
    6600, 8.64253e-06, 2.23018e-05, 0, 0
    6700, 8.36763e-06, 2.14458e-05, 0, 0
    6800, 8.10269e-06, 2.06225e-05, 0, 0
    6900, 7.8483e-06, 1.98306e-05, 0, 0
    7000, 7.60415e-06, 1.90688e-05, 0, 0
    7100, 7.36862e-06, 1.8336e-05, 0, 0
    7200, 7.14168e-06, 1.76311e-05, 0, 0
    7300, 6.92281e-06, 1.69531e-05, 0, 0
    7400, 6.71196e-06, 1.6301e-05, 0, 0
    7500, 6.50908e-06, 1.56737e-05, 0, 0
    7600, 6.3136e-06, 1.50704e-05, 0, 0
    7700, 6.1272e-06, 1.449e-05, 0, 0
    7800, 5.94966e-06, 1.39318e-05, 0, 0
    7900, 5.78009e-06, 1.33949e-05, 0, 0
    8000, 5.61697e-06, 1.28785e-05, 0, 0
    8100, 5.45989e-06, 1.23816e-05, 0, 0
    8200, 5.3081e-06, 1.19037e-05, 0, 0
    8300, 5.16141e-06, 1.1445e-05, 0, 0
    8400, 5.02025e-06, 1.10024e-05, 0, 0
    8500, 4.88439e-06, 1.05772e-05, 0, 0
    8600, 4.75305e-06, 1.01689e-05, 0, 0
    8700, 4.62293e-06, 9.78441e-06, 0, 0
    8800, 4.49951e-06, 9.41091e-06, 0, 0
    8900, 4.38808e-06, 9.04799e-06, 0, 0
    9000, 4.27907e-06, 8.69854e-06, 0, 0
    9100, 4.17291e-06, 8.36136e-06, 0, 0
    9200, 4.07056e-06, 8.03672e-06, 0, 0
    9300, 3.97179e-06, 7.72427e-06, 0, 0
    9400, 3.87629e-06, 7.42368e-06, 0, 0
    9500, 3.78736e-06, 7.13398e-06, 0, 0
    9600, 3.69896e-06, 6.86043e-06, 0, 0
    9700, 3.61311e-06, 6.63267e-06, 0, 0
    9800, 3.52994e-06, 6.41455e-06, 0, 0
    9900, 3.4498e-06, 6.20561e-06, 0, 0
    10000, 3.37252e-06, 6.00546e-06, 0, 0
    10100, 3.29805e-06, 5.81374e-06, 0, 0
    10200, 3.22594e-06, 5.63007e-06, 0, 0
    10300, 3.15666e-06, 5.45412e-06, 0, 0
    10400, 3.09011e-06, 5.28555e-06, 0, 0
    10500, 3.02585e-06, 5.12404e-06, 0, 0
    10600, 2.96332e-06, 4.98482e-06, 0, 0
    10700, 2.90305e-06, 4.81064e-06, 0, 0
    10800, 2.84252e-06, 4.67136e-06, 0, 0
    10900, 2.7855e-06, 4.53893e-06, 0, 0
    11000, 2.7281e-06, 4.42115e-06, 0, 0
    11100, 2.67328e-06, 4.29692e-06, 0, 0
    11200, 2.62169e-06, 4.17733e-06, 0, 0
    11300, 2.57241e-06, 4.06292e-06, 0, 0
    11400, 2.52509e-06, 3.95227e-06, 0, 0
    11500, 2.47936e-06, 3.84636e-06, 0, 0
    11600, 2.43519e-06, 3.74452e-06, 0, 0
    11700, 2.393e-06, 3.64633e-06, 0, 0
    11800, 2.35216e-06, 3.55263e-06, 0, 0
    11900, 2.31269e-06, 3.4627e-06, 0, 0
    12000, 2.27451e-06, 3.37673e-06, 0, 0
    12100, 2.24027e-06, 3.30706e-06, 0, 0
    12200, 2.20541e-06, 3.22108e-06, 0, 0
    12300, 2.17201e-06, 3.14222e-06, 0, 0
    12400, 2.13876e-06, 3.06637e-06, 0, 0
    12500, 2.10625e-06, 2.99334e-06, 0, 0
    12600, 2.07436e-06, 2.92451e-06, 0, 0
    12700, 2.04332e-06, 2.85833e-06, 0, 0
    12800, 2.0133e-06, 2.7941e-06, 0, 0
    12900, 1.98408e-06, 2.73329e-06, 0, 0
    13000, 1.95564e-06, 2.67457e-06, 0, 0
    13100, 1.9279e-06, 2.61794e-06, 0, 0
    13200, 1.90096e-06, 2.56337e-06, 0, 0
    13300, 1.87476e-06, 2.5108e-06, 0, 0
    13400, 1.84916e-06, 2.46685e-06, 0, 0
    13500, 1.82447e-06, 2.39692e-06, 0, 0
    13600, 1.80089e-06, 2.28872e-06, 0, 0
    13700, 1.77721e-06, 2.26193e-06, 0, 0
    13800, 1.75388e-06, 2.22439e-06, 0, 0
    13900, 1.73137e-06, 2.1877e-06, 0, 0
    14000, 1.70952e-06, 2.15051e-06, 0, 0
    14100, 1.6883e-06, 2.11374e-06, 0, 0
    14200, 1.66755e-06, 2.07859e-06, 0, 0
    14300, 1.64743e-06, 2.04382e-06, 0, 0
    14400, 1.62783e-06, 2.00979e-06, 0, 0
    14500, 1.60865e-06, 1.97751e-06, 0, 0
    14600, 1.59e-06, 1.9457e-06, 0, 0
    14700, 1.57182e-06, 1.91463e-06, 0, 0
    14800, 1.55647e-06, 1.87203e-06, 0, 0
    14900, 1.54168e-06, 1.84013e-06, 0, 0
    15000, 1.52562e-06, 1.81202e-06, 0, 0
    15100, 1.50941e-06, 1.78769e-06, 0, 0
    15200, 1.49342e-06, 1.76453e-06, 0, 0
    15300, 1.47724e-06, 1.75027e-06, 0, 0
    15400, 1.46271e-06, 1.77249e-06, 0, 0
    15500, 1.44842e-06, 1.41811e-06, 0, 0
    15600, 1.43158e-06, 1.39237e-06, 0, 0
    15700, 1.41804e-06, 1.71874e-06, 0, 0
    15800, 1.39886e-06, 1.77293e-06, 0, 0
    15900, 1.3884e-06, 1.35325e-06, 0, 0
    16000, 1.36277e-06, 1.33387e-06, 0, 0
    16100, 1.3497e-06, 1.66679e-06, 0, 0
    16200, 1.34054e-06, 1.72128e-06, 0, 0
    16300, 1.33394e-06, 1.2842e-06, 0, 0
    16400, 1.32267e-06, 1.27327e-06, 0, 0
    16500, 1.30362e-06, 1.66568e-06, 0, 0
    16600, 1.31054e-06, 1.24249e-06, 0, 0
    16700, 1.2854e-06, 1.66156e-06, 0, 0
    16800, 1.29228e-06, 1.2247e-06, 0, 0
    16900, 1.28541e-06, 1.20011e-06, 0, 0
    17000, 1.26808e-06, 1.19545e-06, 0, 0
    17100, 1.25498e-06, 1.17458e-06, 0, 0
    17200, 1.24671e-06, 1.59906e-06, 0, 0
    17300, 1.24678e-06, 1.69859e-06, 0, 0
    17400, 1.24551e-06, 1.74756e-06, 0, 0
    17500, 1.2268e-06, 1.1353e-06, 0, 0
    17600, 1.21954e-06, 1.12661e-06, 0, 0
    17700, 1.20797e-06, 1.55825e-06, 0, 0
    17800, 1.20512e-06, 1.11066e-06, 0, 0
    17900, 1.19967e-06, 1.07973e-06, 0, 0
    18000, 1.19155e-06, 1.0741e-06, 0, 0
    18100, 1.19297e-06, 1.7182e-06, 0, 0
    18200, 1.1802e-06, 1.03821e-06, 0, 0
    18300, 1.16873e-06, 1.01686e-06, 0, 0
    18400, 1.16686e-06, 1.05051e-06, 0, 0
    18500, 1.16187e-06, 1.02933e-06, 0, 0
    18600, 1.15487e-06, 1.03965e-06, 0, 0
    18700, 1.14581e-06, 1.00795e-06, 0, 0
    18800, 1.15458e-06, 1.00075e-06, 0, 0
    18900, 1.1339e-06, 9.79878e-07, 0, 0
    19000, 1.13012e-06, 9.9602e-07, 0, 0
    19100, 1.12296e-06, 9.68383e-07, 0, 0
    19200, 1.11587e-06, 9.62622e-07, 0, 0
    19300, 1.1125e-06, 9.5634e-07, 0, 0
    19400, 1.10575e-06, 9.50635e-07, 0, 0
    19500, 1.09751e-06, 9.57516e-07, 0, 0
    19600, 1.0954e-06, 1.58357e-06, 0, 0
    19700, 1.08915e-06, 9.32349e-07, 0, 0
    19800, 1.08352e-06, 9.25943e-07, 0, 0
    19900, 1.08145e-06, 8.78129e-07, 0, 0
--> FOAM Warning : Max iterations reached within momentum loop
Max sigmaEq (von Mises stress) = 105097
ExecutionTime = 18.16 s  ClockTime = 19 s

Jacobian determinant max. 1.00086 min. 0.999346

Time = 2

Evolving solid solver
Solving the total Lagrangian form of the momentum equation for D
    Corr, res, relRes, matRes, iters
    100, 0.000248253, 0.00269438, 0, 0
    200, 4.0666e-05, 0.000348192, 0, 0
    300, 4.1873e-05, 0.000704707, 0, 0
    400, 4.33146e-05, 0.000770613, 0, 0
    500, 4.15929e-05, 0.000790072, 0, 0
    600, 3.98418e-05, 0.000802616, 0, 0
    700, 3.81799e-05, 0.000813459, 0, 0
    800, 3.66239e-05, 0.000823505, 0, 0
    900, 3.51883e-05, 0.000833163, 0, 0
    1000, 3.37883e-05, 0.000842629, 0, 0
    1100, 3.24554e-05, 0.000852027, 0, 0
    1200, 3.11852e-05, 0.000861504, 0, 0
    1300, 3.00173e-05, 0.000871219, 0, 0
    1400, 2.89165e-05, 0.000881344, 0, 0
    1500, 2.78615e-05, 0.000892067, 0, 0
    1600, 2.68409e-05, 0.000903601, 0, 0
    1700, 2.5858e-05, 0.000916184, 0, 0
    1800, 2.49103e-05, 0.00093006, 0, 0
    1900, 2.44554e-05, 0.000944725, 0, 0
    2000, 2.49316e-05, 0.000957437, 0, 0
    2100, 2.54981e-05, 0.000969849, 0, 0
    2200, 2.64858e-05, 0.000981237, 0, 0
    2300, 2.75587e-05, 0.000994038, 0, 0
    2400, 2.86704e-05, 0.0010102, 0, 0
    2500, 2.98283e-05, 0.00102853, 0, 0
    2600, 2.71114e-05, 0.000261569, 0, 0
    2700, 2.63591e-05, 0.00036242, 0, 0
    2800, 1.99274e-05, 0.000189806, 0, 0
    2900, 1.72199e-05, 0.000127282, 0, 0
    3000, 1.70183e-05, 0.000116341, 0, 0
    3100, 1.5924e-05, 0.000112017, 0, 0
    3200, 1.52487e-05, 0.000106933, 0, 0
    3300, 1.46107e-05, 0.00010226, 0, 0
    3400, 1.4033e-05, 9.7885e-05, 0, 0
    3500, 1.35117e-05, 9.37173e-05, 0, 0
    3600, 1.30113e-05, 8.97466e-05, 0, 0
    3700, 1.25361e-05, 8.59475e-05, 0, 0
    3800, 1.20809e-05, 8.23107e-05, 0, 0
    3900, 1.16389e-05, 7.88405e-05, 0, 0
    4000, 1.12134e-05, 7.55239e-05, 0, 0
    4100, 1.08077e-05, 7.23553e-05, 0, 0
    4200, 1.0421e-05, 6.93282e-05, 0, 0
    4300, 1.00584e-05, 6.64362e-05, 0, 0
    4400, 9.71298e-06, 6.36702e-05, 0, 0
    4500, 9.37967e-06, 6.09701e-05, 0, 0
    4600, 9.0584e-06, 5.83947e-05, 0, 0
    4700, 8.74866e-06, 5.5938e-05, 0, 0
    4800, 8.45072e-06, 5.35939e-05, 0, 0
    4900, 8.16377e-06, 5.1357e-05, 0, 0
    5000, 7.88714e-06, 4.9222e-05, 0, 0
    5100, 7.62534e-06, 4.71594e-05, 0, 0
    5200, 7.35404e-06, 4.52935e-05, 0, 0
    5300, 7.11359e-06, 4.33659e-05, 0, 0
    5400, 6.87031e-06, 4.16185e-05, 0, 0
    5500, 6.6416e-06, 3.99146e-05, 0, 0
    5600, 6.42083e-06, 3.8317e-05, 0, 0
    5700, 6.21131e-06, 3.69449e-05, 0, 0
    5800, 6.01075e-06, 3.56135e-05, 0, 0
    5900, 5.81956e-06, 3.43264e-05, 0, 0
    6000, 5.63625e-06, 3.30826e-05, 0, 0
    6100, 5.45955e-06, 3.1877e-05, 0, 0
    6200, 5.28983e-06, 3.0702e-05, 0, 0
    6300, 5.12705e-06, 2.95687e-05, 0, 0
    6400, 4.97106e-06, 2.84736e-05, 0, 0
    6500, 4.82057e-06, 2.74192e-05, 0, 0
    6600, 4.67655e-06, 2.64024e-05, 0, 0
    6700, 4.53934e-06, 2.54221e-05, 0, 0
    6800, 4.40868e-06, 2.44771e-05, 0, 0
    6900, 4.28503e-06, 2.35671e-05, 0, 0
    7000, 4.16645e-06, 2.26883e-05, 0, 0
    7100, 4.05268e-06, 2.18533e-05, 0, 0
    7200, 3.94975e-06, 2.10288e-05, 0, 0
    7300, 3.84953e-06, 2.02415e-05, 0, 0
    7400, 3.75312e-06, 1.94848e-05, 0, 0
    7500, 3.66004e-06, 1.87558e-05, 0, 0
    7600, 3.57069e-06, 1.80536e-05, 0, 0
    7700, 3.48506e-06, 1.73771e-05, 0, 0
    7800, 3.40266e-06, 1.67256e-05, 0, 0
    7900, 3.32362e-06, 1.60979e-05, 0, 0
    8000, 3.24781e-06, 1.54934e-05, 0, 0
    8100, 3.17484e-06, 1.49112e-05, 0, 0
    8200, 3.10488e-06, 1.43505e-05, 0, 0
    8300, 3.03724e-06, 1.38105e-05, 0, 0
    8400, 2.97191e-06, 1.32904e-05, 0, 0
    8500, 2.90881e-06, 1.27896e-05, 0, 0
    8600, 2.8477e-06, 1.23073e-05, 0, 0
    8700, 2.78853e-06, 1.18415e-05, 0, 0
    8800, 2.73137e-06, 1.1393e-05, 0, 0
    8900, 2.67871e-06, 1.0986e-05, 0, 0
    9000, 2.6299e-06, 1.056e-05, 0, 0
    9100, 2.58058e-06, 1.01596e-05, 0, 0
    9200, 2.53174e-06, 9.77624e-06, 0, 0
    9300, 2.4792e-06, 9.43759e-06, 0, 0
    9400, 2.43095e-06, 9.13235e-06, 0, 0
    9500, 2.38602e-06, 8.83718e-06, 0, 0
    9600, 2.34281e-06, 8.55456e-06, 0, 0
    9700, 2.30093e-06, 8.28247e-06, 0, 0
    9800, 2.2606e-06, 8.02373e-06, 0, 0
    9900, 2.22178e-06, 7.77556e-06, 0, 0
    10000, 2.18414e-06, 7.53635e-06, 0, 0
    10100, 2.14745e-06, 7.30878e-06, 0, 0
    10200, 2.11191e-06, 7.09044e-06, 0, 0
    10300, 2.07766e-06, 6.87978e-06, 0, 0
    10400, 2.04358e-06, 6.68001e-06, 0, 0
    10500, 2.01164e-06, 6.48193e-06, 0, 0
    10600, 1.97835e-06, 6.29666e-06, 0, 0
    10700, 1.94667e-06, 6.1213e-06, 0, 0
    10800, 1.91701e-06, 5.83149e-06, 0, 0
    10900, 1.88898e-06, 5.73574e-06, 0, 0
    11000, 1.86052e-06, 5.58646e-06, 0, 0
    11100, 1.8331e-06, 5.44177e-06, 0, 0
    11200, 1.80655e-06, 5.30105e-06, 0, 0
    11300, 1.78077e-06, 5.16713e-06, 0, 0
    11400, 1.75579e-06, 5.03806e-06, 0, 0
    11500, 1.7317e-06, 4.91296e-06, 0, 0
    11600, 1.70818e-06, 4.79412e-06, 0, 0
    11700, 1.68533e-06, 4.67961e-06, 0, 0
    11800, 1.66319e-06, 4.56858e-06, 0, 0
    11900, 1.64173e-06, 4.46307e-06, 0, 0
    12000, 1.62087e-06, 4.36193e-06, 0, 0
    12100, 1.60069e-06, 4.26237e-06, 0, 0
    12200, 1.58107e-06, 4.16864e-06, 0, 0
    12300, 1.56204e-06, 4.07812e-06, 0, 0
    12400, 1.54369e-06, 3.99107e-06, 0, 0
    12500, 1.52756e-06, 3.84013e-06, 0, 0
    12600, 1.51043e-06, 3.76884e-06, 0, 0
    12700, 1.49388e-06, 3.69799e-06, 0, 0
    12800, 1.47783e-06, 3.627e-06, 0, 0
    12900, 1.46418e-06, 3.52466e-06, 0, 0
    13000, 1.45183e-06, 3.46952e-06, 0, 0
    13100, 1.43875e-06, 3.40969e-06, 0, 0
    13200, 1.42552e-06, 3.35048e-06, 0, 0
    13300, 1.41234e-06, 3.29209e-06, 0, 0
    13400, 1.39927e-06, 3.23642e-06, 0, 0
    13500, 1.38646e-06, 3.18385e-06, 0, 0
    13600, 1.37395e-06, 3.13077e-06, 0, 0
    13700, 1.3616e-06, 3.08058e-06, 0, 0
    13800, 1.34953e-06, 3.03176e-06, 0, 0
    13900, 1.33615e-06, 3.04467e-06, 0, 0
    14000, 1.32339e-06, 2.95312e-06, 0, 0
    14100, 1.31146e-06, 2.93023e-06, 0, 0
    14200, 1.29825e-06, 2.85092e-06, 0, 0
    14300, 1.28541e-06, 2.81588e-06, 0, 0
    14400, 1.27179e-06, 2.78531e-06, 0, 0
    14500, 1.25512e-06, 2.70919e-06, 0, 0
    14600, 1.24455e-06, 2.72912e-06, 0, 0
    14700, 1.23558e-06, 2.69977e-06, 0, 0
    14800, 1.2312e-06, 2.718e-06, 0, 0
    14900, 1.21657e-06, 2.6746e-06, 0, 0
    15000, 1.20486e-06, 2.65381e-06, 0, 0
    15100, 1.20119e-06, 2.16962e-06, 0, 0
    15200, 1.18145e-06, 2.59542e-06, 0, 0
    15300, 1.1808e-06, 2.72614e-06, 0, 0
    15400, 1.17131e-06, 2.65344e-06, 0, 0
    15500, 1.17098e-06, 2.05491e-06, 0, 0
    15600, 1.15666e-06, 2.64853e-06, 0, 0
    15700, 1.14374e-06, 2.59408e-06, 0, 0
    15800, 1.14275e-06, 2.00148e-06, 0, 0
    15900, 1.13927e-06, 1.97511e-06, 0, 0
    16000, 1.12296e-06, 2.58364e-06, 0, 0
    16100, 1.11581e-06, 2.65314e-06, 0, 0
    16200, 1.10936e-06, 2.54019e-06, 0, 0
    16300, 1.10319e-06, 1.88245e-06, 0, 0
    16400, 1.0995e-06, 1.88675e-06, 0, 0
    16500, 1.09367e-06, 1.89722e-06, 0, 0
    16600, 1.09153e-06, 2.61465e-06, 0, 0
    16700, 1.09241e-06, 1.76216e-06, 0, 0
    16800, 1.08786e-06, 1.76252e-06, 0, 0
    16900, 1.07428e-06, 2.50113e-06, 0, 0
    17000, 1.07671e-06, 1.71485e-06, 0, 0
    17100, 1.0581e-06, 2.54593e-06, 0, 0
    17200, 1.06399e-06, 1.69669e-06, 0, 0
    17300, 1.04691e-06, 1.70976e-06, 0, 0
    17400, 1.04161e-06, 1.69221e-06, 0, 0
    17500, 1.03509e-06, 1.63709e-06, 0, 0
    17600, 1.03459e-06, 2.33105e-06, 0, 0
    17700, 1.02732e-06, 1.65755e-06, 0, 0
    17800, 1.01968e-06, 1.59859e-06, 0, 0
    17900, 1.01838e-06, 1.57985e-06, 0, 0
    18000, 1.02506e-06, 1.52937e-06, 0, 0
    18100, 1.00622e-06, 1.57745e-06, 0, 0
    18200, 1.0009e-06, 1.52329e-06, 0, 0
    18300, 1.00137e-06, 2.34933e-06, 0, 0
    18400, 9.90699e-07, 1.52616e-06, 0, 0
    18500, 9.85273e-07, 1.49015e-06, 0, 0
    18600, 9.81645e-07, 1.50732e-06, 0, 0
    18700, 9.75961e-07, 1.44029e-06, 0, 0
    18800, 9.72748e-07, 1.48496e-06, 0, 0
    18900, 9.66212e-07, 1.40859e-06, 0, 0
    19000, 9.63655e-07, 1.45679e-06, 0, 0
    19100, 9.57274e-07, 1.37999e-06, 0, 0
    19200, 9.54358e-07, 1.42106e-06, 0, 0
    19300, 9.49728e-07, 1.3839e-06, 0, 0
    19400, 9.46515e-07, 1.40374e-06, 0, 0
    19500, 9.41445e-07, 1.33344e-06, 0, 0
    19600, 9.37507e-07, 1.37405e-06, 0, 0
    19700, 9.3343e-07, 1.29515e-06, 0, 0
    19800, 9.29414e-07, 1.35257e-06, 0, 0
    19900, 9.23627e-07, 1.28477e-06, 0, 0
--> FOAM Warning : Max iterations reached within momentum loop
Max sigmaEq (von Mises stress) = 171768
ExecutionTime = 36.71 s  ClockTime = 37 s

Jacobian determinant max. 1.00119 min. 0.99924

Time = 3

Evolving solid solver
Solving the total Lagrangian form of the momentum equation for D
    Corr, res, relRes, matRes, iters
    100, 0.000197598, 0.00255651, 0, 0
    200, 3.69437e-05, 0.000409432, 0, 0
    300, 3.70039e-05, 0.00077927, 0, 0
    400, 3.6319e-05, 0.000853175, 0, 0
    500, 3.48027e-05, 0.000883725, 0, 0
    600, 3.33684e-05, 0.000907666, 0, 0
    700, 3.19837e-05, 0.00093122, 0, 0
    800, 3.07125e-05, 0.000955525, 0, 0
    900, 2.9525e-05, 0.000981231, 0, 0
    1000, 2.8374e-05, 0.00100881, 0, 0
    1100, 2.7259e-05, 0.00103882, 0, 0
    1200, 2.61842e-05, 0.00107193, 0, 0
    1300, 2.51673e-05, 0.00110897, 0, 0
    1400, 2.42236e-05, 0.00115097, 0, 0
    1500, 2.39363e-05, 0.00119687, 0, 0
    1600, 2.37232e-05, 0.00124798, 0, 0
    1700, 2.37489e-05, 0.00130385, 0, 0
    1800, 2.39473e-05, 0.00135955, 0, 0
    1900, 2.44365e-05, 0.00142312, 0, 0
    2000, 2.52101e-05, 0.00149654, 0, 0
    2100, 2.62232e-05, 0.0015662, 0, 0
    2200, 1.98e-05, 0.000484085, 0, 0
    2300, 1.68814e-05, 0.000436768, 0, 0
    2400, 1.45681e-05, 0.000203827, 0, 0
    2500, 1.38586e-05, 0.000202681, 0, 0
    2600, 1.131e-05, 0.00012772, 0, 0
    2700, 1.03805e-05, 0.000113621, 0, 0
    2800, 1.00624e-05, 0.000115331, 0, 0
    2900, 9.46132e-06, 0.000111592, 0, 0
    3000, 9.1163e-06, 0.000104927, 0, 0
    3100, 8.7019e-06, 0.000100581, 0, 0
    3200, 8.34495e-06, 9.63294e-05, 0, 0
    3300, 8.00639e-06, 9.22688e-05, 0, 0
    3400, 7.69545e-06, 8.83458e-05, 0, 0
    3500, 7.40454e-06, 8.46016e-05, 0, 0
    3600, 7.12609e-06, 8.10378e-05, 0, 0
    3700, 6.86145e-06, 7.76343e-05, 0, 0
    3800, 6.61008e-06, 7.43845e-05, 0, 0
    3900, 6.37352e-06, 7.12818e-05, 0, 0
    4000, 6.14809e-06, 6.83187e-05, 0, 0
    4100, 5.93062e-06, 6.54883e-05, 0, 0
    4200, 5.7223e-06, 6.27841e-05, 0, 0
    4300, 5.52269e-06, 6.02e-05, 0, 0
    4400, 5.33128e-06, 5.773e-05, 0, 0
    4500, 5.14854e-06, 5.53686e-05, 0, 0
    4600, 4.97583e-06, 5.31097e-05, 0, 0
    4700, 4.80937e-06, 5.09483e-05, 0, 0
    4800, 4.64937e-06, 4.88847e-05, 0, 0
    4900, 4.49625e-06, 4.68878e-05, 0, 0
    5000, 4.34835e-06, 4.49681e-05, 0, 0
    5100, 4.20629e-06, 4.3135e-05, 0, 0
    5200, 4.07022e-06, 4.1395e-05, 0, 0
    5300, 3.93864e-06, 3.99155e-05, 0, 0
    5400, 3.81202e-06, 3.8488e-05, 0, 0
    5500, 3.69167e-06, 3.7103e-05, 0, 0
    5600, 3.57607e-06, 3.57675e-05, 0, 0
    5700, 3.46532e-06, 3.44798e-05, 0, 0
    5800, 3.35912e-06, 3.32313e-05, 0, 0
    5900, 3.25698e-06, 3.20281e-05, 0, 0
    6000, 3.15862e-06, 3.08687e-05, 0, 0
    6100, 3.06146e-06, 2.96001e-05, 0, 0
    6200, 2.96852e-06, 2.85411e-05, 0, 0
    6300, 2.87799e-06, 2.75074e-05, 0, 0
    6400, 2.78668e-06, 2.65492e-05, 0, 0
    6500, 2.70408e-06, 2.55809e-05, 0, 0
    6600, 2.62398e-06, 2.4641e-05, 0, 0
    6700, 2.54784e-06, 2.37325e-05, 0, 0
    6800, 2.475e-06, 2.28575e-05, 0, 0
    6900, 2.40533e-06, 2.2014e-05, 0, 0
    7000, 2.33857e-06, 2.1201e-05, 0, 0
    7100, 2.2768e-06, 2.04235e-05, 0, 0
    7200, 2.21649e-06, 1.96677e-05, 0, 0
    7300, 2.15764e-06, 1.89392e-05, 0, 0
    7400, 2.10125e-06, 1.82369e-05, 0, 0
    7500, 2.04721e-06, 1.75602e-05, 0, 0
    7600, 1.99537e-06, 1.69081e-05, 0, 0
    7700, 1.94557e-06, 1.62804e-05, 0, 0
    7800, 1.89813e-06, 1.56753e-05, 0, 0
    7900, 1.85293e-06, 1.50924e-05, 0, 0
    8000, 1.80971e-06, 1.45308e-05, 0, 0
    8100, 1.76805e-06, 1.399e-05, 0, 0
    8200, 1.72802e-06, 1.3469e-05, 0, 0
    8300, 1.68929e-06, 1.29672e-05, 0, 0
    8400, 1.65191e-06, 1.24839e-05, 0, 0
    8500, 1.6158e-06, 1.20183e-05, 0, 0
    8600, 1.58094e-06, 1.15698e-05, 0, 0
    8700, 1.54733e-06, 1.11378e-05, 0, 0
    8800, 1.5151e-06, 1.07218e-05, 0, 0
    8900, 1.48415e-06, 1.0321e-05, 0, 0
    9000, 1.45426e-06, 9.93497e-06, 0, 0
    9100, 1.42622e-06, 9.53343e-06, 0, 0
    9200, 1.3998e-06, 9.23232e-06, 0, 0
    9300, 1.37436e-06, 8.88842e-06, 0, 0
    9400, 1.34857e-06, 8.54133e-06, 0, 0
    9500, 1.32556e-06, 8.26035e-06, 0, 0
    9600, 1.30287e-06, 7.95067e-06, 0, 0
    9700, 1.2811e-06, 7.65072e-06, 0, 0
    9800, 1.26015e-06, 7.36229e-06, 0, 0
    9900, 1.24019e-06, 7.08428e-06, 0, 0
    10000, 1.22099e-06, 6.81641e-06, 0, 0
    10100, 1.20226e-06, 6.55832e-06, 0, 0
    10200, 1.18404e-06, 6.3097e-06, 0, 0
    10300, 1.16632e-06, 6.07018e-06, 0, 0
    10400, 1.14905e-06, 5.83994e-06, 0, 0
    10500, 1.13382e-06, 5.59242e-06, 0, 0
    10600, 1.11775e-06, 5.41178e-06, 0, 0
    10700, 1.10095e-06, 5.20013e-06, 0, 0
    10800, 1.0847e-06, 5.0305e-06, 0, 0
    10900, 1.06918e-06, 4.87442e-06, 0, 0
    11000, 1.05428e-06, 4.72339e-06, 0, 0
    11100, 1.03987e-06, 4.57986e-06, 0, 0
    11200, 1.02599e-06, 4.44173e-06, 0, 0
    11300, 1.01262e-06, 4.30812e-06, 0, 0
    11400, 9.99632e-07, 4.1813e-06, 0, 0
    11500, 9.87066e-07, 4.05931e-06, 0, 0
    11600, 9.74909e-07, 3.94132e-06, 0, 0
    11700, 9.63078e-07, 3.82944e-06, 0, 0
    11800, 9.51664e-07, 3.72185e-06, 0, 0
    11900, 9.40642e-07, 3.61776e-06, 0, 0
    12000, 9.29902e-07, 3.51911e-06, 0, 0
    12100, 9.19511e-07, 3.42372e-06, 0, 0
    12200, 9.09422e-07, 3.33254e-06, 0, 0
    12300, 8.99607e-07, 3.24521e-06, 0, 0
    12400, 8.91526e-07, 3.1308e-06, 0, 0
    12500, 8.80332e-07, 3.02339e-06, 0, 0
    12600, 8.71539e-07, 2.95307e-06, 0, 0
    12700, 8.6325e-07, 2.88479e-06, 0, 0
    12800, 8.55248e-07, 2.82039e-06, 0, 0
    12900, 8.47406e-07, 2.75734e-06, 0, 0
    13000, 8.39863e-07, 2.69651e-06, 0, 0
    13100, 8.32488e-07, 2.63785e-06, 0, 0
    13200, 8.25242e-07, 2.58222e-06, 0, 0
    13300, 8.18135e-07, 2.52797e-06, 0, 0
    13400, 8.11154e-07, 2.47611e-06, 0, 0
    13500, 8.04333e-07, 2.42679e-06, 0, 0
    13600, 7.9766e-07, 2.37838e-06, 0, 0
    13700, 7.91106e-07, 2.33182e-06, 0, 0
    13800, 7.84659e-07, 2.28777e-06, 0, 0
    13900, 7.78781e-07, 2.23522e-06, 0, 0
    14000, 7.71929e-07, 2.1975e-06, 0, 0
    14100, 7.65776e-07, 2.15117e-06, 0, 0
    14200, 7.59893e-07, 2.11876e-06, 0, 0
    14300, 7.50449e-07, 2.07282e-06, 0, 0
    14400, 7.44983e-07, 2.04537e-06, 0, 0
    14500, 7.4223e-07, 2.0401e-06, 0, 0
    14600, 7.33874e-07, 1.99396e-06, 0, 0
    14700, 7.28915e-07, 1.97717e-06, 0, 0
    14800, 7.21117e-07, 1.88277e-06, 0, 0
    14900, 7.18721e-07, 1.71127e-06, 0, 0
    15000, 7.13739e-07, 1.68285e-06, 0, 0
    15100, 7.08591e-07, 1.65678e-06, 0, 0
    15200, 7.03574e-07, 1.63246e-06, 0, 0
    15300, 6.98154e-07, 1.60678e-06, 0, 0
    15400, 6.94101e-07, 1.56861e-06, 0, 0
    15500, 6.9012e-07, 1.55343e-06, 0, 0
    15600, 6.80736e-07, 1.79566e-06, 0, 0
    15700, 6.80502e-07, 1.50508e-06, 0, 0
    15800, 6.74844e-07, 1.4861e-06, 0, 0
    15900, 6.68857e-07, 1.75712e-06, 0, 0
    16000, 6.6899e-07, 1.45195e-06, 0, 0
    16100, 6.64235e-07, 1.44607e-06, 0, 0
    16200, 6.58255e-07, 1.42158e-06, 0, 0
    16300, 6.58929e-07, 1.41265e-06, 0, 0
    16400, 6.507e-07, 1.64196e-06, 0, 0
    16500, 6.50679e-07, 1.37584e-06, 0, 0
    16600, 6.45473e-07, 1.70085e-06, 0, 0
    16700, 6.42045e-07, 1.67475e-06, 0, 0
    16800, 6.39356e-07, 1.7204e-06, 0, 0
    16900, 6.41067e-07, 1.31757e-06, 0, 0
    17000, 6.32773e-07, 1.26836e-06, 0, 0
    17100, 6.31628e-07, 1.29281e-06, 0, 0
    17200, 6.28385e-07, 1.2677e-06, 0, 0
    17300, 6.23953e-07, 1.64079e-06, 0, 0
    17400, 6.21156e-07, 1.63165e-06, 0, 0
    17500, 6.19875e-07, 1.23661e-06, 0, 0
    17600, 6.17031e-07, 1.23894e-06, 0, 0
    17700, 6.13324e-07, 1.22137e-06, 0, 0
    17800, 6.10687e-07, 9.86415e-07, 0, 0
    17900, 6.07887e-07, 1.2141e-06, 0, 0
    18000, 6.05108e-07, 1.21306e-06, 0, 0
    18100, 6.02649e-07, 1.62324e-06, 0, 0
    18200, 5.99486e-07, 1.18037e-06, 0, 0
    18300, 5.96835e-07, 1.18384e-06, 0, 0
    18400, 5.94209e-07, 1.1863e-06, 0, 0
    18500, 5.92147e-07, 9.42098e-07, 0, 0
    18600, 5.92623e-07, 9.53498e-07, 0, 0
    18700, 5.86709e-07, 1.1524e-06, 0, 0
    18800, 5.84949e-07, 9.14061e-07, 0, 0
    18900, 5.81797e-07, 1.12344e-06, 0, 0
    19000, 5.82894e-07, 9.31059e-07, 0, 0
    19100, 5.7787e-07, 1.14487e-06, 0, 0
    19200, 5.75335e-07, 9.09355e-07, 0, 0
    19300, 5.72246e-07, 9.0347e-07, 0, 0
    19400, 5.69797e-07, 8.93295e-07, 0, 0
    19500, 5.67711e-07, 8.92464e-07, 0, 0
    19600, 5.66201e-07, 1.61699e-06, 0, 0
    19700, 5.63513e-07, 1.62994e-06, 0, 0
    19800, 5.64416e-07, 8.47333e-07, 0, 0
    19900, 5.59041e-07, 8.70594e-07, 0, 0
--> FOAM Warning : Max iterations reached within momentum loop
Max sigmaEq (von Mises stress) = 230620
ExecutionTime = 57.84 s  ClockTime = 58 s

Jacobian determinant max. 1.00109 min. 0.999181

Time = 4

Evolving solid solver
Solving the total Lagrangian form of the momentum equation for D
    Corr, res, relRes, matRes, iters
    100, 0.000158993, 0.00245321, 0, 0
    200, 3.12192e-05, 0.000468642, 0, 0
    300, 3.2716e-05, 0.000843829, 0, 0
    400, 3.21424e-05, 0.00092797, 0, 0
    500, 3.08141e-05, 0.000970552, 0, 0
    600, 2.95185e-05, 0.00100783, 0, 0
    700, 2.8427e-05, 0.00104697, 0, 0
    800, 2.73723e-05, 0.00108941, 0, 0
    900, 2.63572e-05, 0.00113644, 0, 0
    1000, 2.53614e-05, 0.00118947, 0, 0
    1100, 2.43873e-05, 0.00125017, 0, 0
    1200, 2.36573e-05, 0.00132091, 0, 0
    1300, 2.34565e-05, 0.00140126, 0, 0
    1400, 2.3275e-05, 0.00148801, 0, 0
    1500, 2.30808e-05, 0.00159124, 0, 0
    1600, 2.309e-05, 0.0017108, 0, 0
    1700, 2.329e-05, 0.0018337, 0, 0
    1800, 2.38227e-05, 0.00197762, 0, 0
    1900, 2.08231e-05, 0.000891514, 0, 0
    2000, 1.33399e-05, 0.000509017, 0, 0
    2100, 1.41651e-05, 0.000428797, 0, 0
    2200, 1.17828e-05, 0.000231997, 0, 0
    2300, 8.96317e-06, 0.000204402, 0, 0
    2400, 8.36419e-06, 0.000193609, 0, 0
    2500, 8.33923e-06, 0.00020783, 0, 0
    2600, 8.02899e-06, 0.000150067, 0, 0
    2700, 7.30652e-06, 0.000132931, 0, 0
    2800, 6.68321e-06, 0.000116101, 0, 0
    2900, 6.30253e-06, 0.000110435, 0, 0
    3000, 6.03291e-06, 0.00010419, 0, 0
    3100, 5.80289e-06, 9.88951e-05, 0, 0
    3200, 5.57608e-06, 9.42126e-05, 0, 0
    3300, 5.35691e-06, 8.97726e-05, 0, 0
    3400, 5.14459e-06, 8.56082e-05, 0, 0
    3500, 4.93976e-06, 8.16902e-05, 0, 0
    3600, 4.74289e-06, 7.80094e-05, 0, 0
    3700, 4.55477e-06, 7.45308e-05, 0, 0
    3800, 4.37461e-06, 7.12319e-05, 0, 0
    3900, 4.20152e-06, 6.81089e-05, 0, 0
    4000, 4.03694e-06, 6.51448e-05, 0, 0
    4100, 3.88259e-06, 6.23279e-05, 0, 0
    4200, 3.73483e-06, 5.96489e-05, 0, 0
    4300, 3.59453e-06, 5.70991e-05, 0, 0
    4400, 3.46052e-06, 5.46709e-05, 0, 0
    4500, 3.33207e-06, 5.24067e-05, 0, 0
    4600, 3.2093e-06, 5.03448e-05, 0, 0
    4700, 3.09145e-06, 4.83704e-05, 0, 0
    4800, 2.97869e-06, 4.64792e-05, 0, 0
    4900, 2.87057e-06, 4.46674e-05, 0, 0
    5000, 2.76714e-06, 4.29313e-05, 0, 0
    5100, 2.66801e-06, 4.1258e-05, 0, 0
    5200, 2.57392e-06, 3.97196e-05, 0, 0
    5300, 2.48357e-06, 3.83088e-05, 0, 0
    5400, 2.39676e-06, 3.69486e-05, 0, 0
    5500, 2.3138e-06, 3.56289e-05, 0, 0
    5600, 2.2338e-06, 3.43581e-05, 0, 0
    5700, 2.15695e-06, 3.313e-05, 0, 0
    5800, 2.08316e-06, 3.19444e-05, 0, 0
    5900, 2.01243e-06, 3.07998e-05, 0, 0
    6000, 1.94454e-06, 2.96899e-05, 0, 0
    6100, 1.87974e-06, 2.86151e-05, 0, 0
    6200, 1.81796e-06, 2.75786e-05, 0, 0
    6300, 1.75897e-06, 2.6579e-05, 0, 0
    6400, 1.70244e-06, 2.56152e-05, 0, 0
    6500, 1.64801e-06, 2.46859e-05, 0, 0
    6600, 1.59582e-06, 2.37899e-05, 0, 0
    6700, 1.54644e-06, 2.29633e-05, 0, 0
    6800, 1.49874e-06, 2.21317e-05, 0, 0
    6900, 1.45322e-06, 2.13298e-05, 0, 0
    7000, 1.41024e-06, 2.05509e-05, 0, 0
    7100, 1.36897e-06, 1.98048e-05, 0, 0
    7200, 1.32969e-06, 1.90809e-05, 0, 0
    7300, 1.29196e-06, 1.83855e-05, 0, 0
    7400, 1.25566e-06, 1.77169e-05, 0, 0
    7500, 1.22101e-06, 1.70707e-05, 0, 0
    7600, 1.18798e-06, 1.64467e-05, 0, 0
    7700, 1.15633e-06, 1.58468e-05, 0, 0
    7800, 1.12533e-06, 1.51775e-05, 0, 0
    7900, 1.0939e-06, 1.47672e-05, 0, 0
    8000, 1.06469e-06, 1.41557e-05, 0, 0
    8100, 1.03908e-06, 1.36421e-05, 0, 0
    8200, 1.01568e-06, 1.31448e-05, 0, 0
    8300, 9.91998e-07, 1.26662e-05, 0, 0
    8400, 9.69285e-07, 1.22029e-05, 0, 0
    8500, 9.47168e-07, 1.17581e-05, 0, 0
    8600, 9.25745e-07, 1.13309e-05, 0, 0
    8700, 9.05186e-07, 1.09173e-05, 0, 0
    8800, 8.85359e-07, 1.05197e-05, 0, 0
    8900, 8.66166e-07, 1.01367e-05, 0, 0
    9000, 8.47818e-07, 9.76707e-06, 0, 0
    9100, 8.30081e-07, 9.41203e-06, 0, 0
    9200, 8.13142e-07, 9.06909e-06, 0, 0
    9300, 7.96931e-07, 8.73871e-06, 0, 0
    9400, 7.81489e-07, 8.42042e-06, 0, 0
    9500, 7.668e-07, 8.11378e-06, 0, 0
    9600, 7.52726e-07, 7.81836e-06, 0, 0
    9700, 7.39177e-07, 7.53375e-06, 0, 0
    9800, 7.26184e-07, 7.25956e-06, 0, 0
    9900, 7.13399e-07, 7.0285e-06, 0, 0
    10000, 7.01037e-07, 6.77358e-06, 0, 0
    10100, 6.89553e-07, 6.52602e-06, 0, 0
    10200, 6.79599e-07, 6.27438e-06, 0, 0
    10300, 6.69001e-07, 6.0697e-06, 0, 0
    10400, 6.58782e-07, 5.84529e-06, 0, 0
    10500, 6.49006e-07, 5.63265e-06, 0, 0
    10600, 6.39576e-07, 5.42751e-06, 0, 0
    10700, 6.30423e-07, 5.22967e-06, 0, 0
    10800, 6.21535e-07, 5.03897e-06, 0, 0
    10900, 6.12928e-07, 4.8552e-06, 0, 0
    11000, 6.04615e-07, 4.67811e-06, 0, 0
    11100, 5.96565e-07, 4.50749e-06, 0, 0
    11200, 5.88927e-07, 4.36604e-06, 0, 0
    11300, 5.81148e-07, 4.20224e-06, 0, 0
    11400, 5.73565e-07, 4.04612e-06, 0, 0
    11500, 5.66615e-07, 3.86086e-06, 0, 0
    11600, 5.59871e-07, 3.72889e-06, 0, 0
    11700, 5.53359e-07, 3.59232e-06, 0, 0
    11800, 5.47131e-07, 3.46123e-06, 0, 0
    11900, 5.41088e-07, 3.33507e-06, 0, 0
    12000, 5.3526e-07, 3.21278e-06, 0, 0
    12100, 5.29571e-07, 3.10238e-06, 0, 0
    12200, 5.24062e-07, 2.99886e-06, 0, 0
    12300, 5.18748e-07, 2.8983e-06, 0, 0
    12400, 5.13547e-07, 2.80242e-06, 0, 0
    12500, 5.08505e-07, 2.7101e-06, 0, 0
    12600, 5.03673e-07, 2.62041e-06, 0, 0
    12700, 4.98946e-07, 2.53491e-06, 0, 0
    12800, 4.94341e-07, 2.45259e-06, 0, 0
    12900, 4.89885e-07, 2.37259e-06, 0, 0
    13000, 4.86836e-07, 2.26096e-06, 0, 0
    13100, 4.83358e-07, 2.19054e-06, 0, 0
    13200, 4.79671e-07, 2.12423e-06, 0, 0
    13300, 4.76234e-07, 2.05849e-06, 0, 0
    13400, 4.71897e-07, 1.96759e-06, 0, 0
    13500, 4.6803e-07, 1.9163e-06, 0, 0
    13600, 4.646e-07, 1.86061e-06, 0, 0
    13700, 4.61266e-07, 1.80632e-06, 0, 0
    13800, 4.58016e-07, 1.75374e-06, 0, 0
    13900, 4.54908e-07, 1.70296e-06, 0, 0
    14000, 4.51993e-07, 1.65313e-06, 0, 0
    14100, 4.49166e-07, 1.60588e-06, 0, 0
    14200, 4.46413e-07, 1.56029e-06, 0, 0
    14300, 4.43719e-07, 1.51631e-06, 0, 0
    14400, 4.39631e-07, 1.46182e-06, 0, 0
    14500, 4.36695e-07, 1.44686e-06, 0, 0
    14600, 4.33608e-07, 1.35079e-06, 0, 0
    14700, 4.31092e-07, 1.32895e-06, 0, 0
    14800, 4.28513e-07, 1.29154e-06, 0, 0
    14900, 4.26129e-07, 1.24803e-06, 0, 0
    15000, 4.24826e-07, 1.16532e-06, 0, 0
    15100, 4.22671e-07, 1.11937e-06, 0, 0
    15200, 4.17329e-07, 1.0369e-06, 0, 0
    15300, 4.15106e-07, 1.01529e-06, 0, 0
    15400, 4.15715e-07, 1.03333e-06, 0, 0
    15500, 4.14155e-07, 9.6278e-07, 0, 0
    15600, 4.12375e-07, 9.38493e-07, 0, 0
    15700, 4.11076e-07, 9.04531e-07, 0, 0
    15800, 4.07408e-07, 8.75195e-07, 0, 0
    15900, 4.04602e-07, 8.93288e-07, 0, 0
    16000, 4.05777e-07, 8.29302e-07, 0, 0
    16100, 4.02974e-07, 8.11204e-07, 0, 0
    16200, 4.02734e-07, 7.91191e-07, 0, 0
    16300, 4.0016e-07, 7.78294e-07, 0, 0
    16400, 3.9696e-07, 7.18259e-07, 0, 0
    16500, 3.95557e-07, 5.5245e-07, 0, 0
    16600, 3.95205e-07, 6.40226e-07, 0, 0
    16700, 3.93272e-07, 6.17206e-07, 0, 0
    16800, 3.91862e-07, 6.512e-07, 0, 0
    16900, 3.90853e-07, 5.38342e-07, 0, 0
    17000, 3.89726e-07, 5.35231e-07, 0, 0
    17100, 3.87126e-07, 8.0187e-07, 0, 0
    17200, 3.87276e-07, 5.21248e-07, 0, 0
    17300, 3.86098e-07, 5.05615e-07, 0, 0
    17400, 3.85017e-07, 5.59064e-07, 0, 0
    17500, 3.84251e-07, 5.0474e-07, 0, 0
    17600, 3.83075e-07, 4.93875e-07, 0, 0
    17700, 3.82029e-07, 4.84475e-07, 0, 0
    17800, 3.81073e-07, 5.0947e-07, 0, 0
    17900, 3.79993e-07, 4.74546e-07, 0, 0
    18000, 3.7899e-07, 4.70179e-07, 0, 0
    18100, 3.78016e-07, 4.66041e-07, 0, 0
    18200, 3.7706e-07, 4.61672e-07, 0, 0
    18300, 3.76105e-07, 4.57772e-07, 0, 0
    18400, 3.75203e-07, 4.54203e-07, 0, 0
    18500, 3.74338e-07, 4.76655e-07, 0, 0
    18600, 3.73343e-07, 4.46337e-07, 0, 0
    18700, 3.72377e-07, 4.41474e-07, 0, 0
    18800, 3.71524e-07, 4.38249e-07, 0, 0
    18900, 3.7071e-07, 4.59475e-07, 0, 0
    19000, 3.69825e-07, 4.55324e-07, 0, 0
    19100, 3.6887e-07, 4.26889e-07, 0, 0
    19200, 3.68082e-07, 4.47214e-07, 0, 0
    19300, 3.67144e-07, 4.19459e-07, 0, 0
    19400, 3.66296e-07, 4.15787e-07, 0, 0
    19500, 3.65504e-07, 4.12543e-07, 0, 0
    19600, 3.64699e-07, 4.07429e-07, 0, 0
    19700, 3.63933e-07, 4.02569e-07, 0, 0
    19800, 3.63373e-07, 4.01305e-07, 0, 0
    19900, 3.62468e-07, 3.9657e-07, 0, 0
--> FOAM Warning : Max iterations reached within momentum loop
Max sigmaEq (von Mises stress) = 290074
ExecutionTime = 79.76 s  ClockTime = 80 s

Jacobian determinant max. 1.00082 min. 0.999123

Time = 5

Evolving solid solver
Solving the total Lagrangian form of the momentum equation for D
    Corr, res, relRes, matRes, iters
    100, 0.000132488, 0.00236533, 0, 0
    200, 2.71073e-05, 0.000527514, 0, 0
    300, 2.9516e-05, 0.000907463, 0, 0
    400, 2.91655e-05, 0.00100223, 0, 0
    500, 2.80326e-05, 0.0010586, 0, 0
    600, 2.69539e-05, 0.00111242, 0, 0
    700, 2.59995e-05, 0.00117081, 0, 0
    800, 2.50908e-05, 0.00123678, 0, 0
    900, 2.41853e-05, 0.00131292, 0, 0
    1000, 2.34164e-05, 0.00140206, 0, 0
    1100, 2.32429e-05, 0.00150563, 0, 0
    1200, 2.30528e-05, 0.00162536, 0, 0
    1300, 2.28924e-05, 0.00175761, 0, 0
    1400, 2.27899e-05, 0.00191903, 0, 0
    1500, 2.27037e-05, 0.00211988, 0, 0
    1600, 2.29345e-05, 0.00236467, 0, 0
    1700, 2.00343e-05, 0.000969152, 0, 0
    1800, 1.32474e-05, 0.000446947, 0, 0
    1900, 1.21497e-05, 0.000472737, 0, 0
    2000, 8.86787e-06, 0.000346754, 0, 0
    2100, 7.09405e-06, 0.000214245, 0, 0
    2200, 6.72366e-06, 0.000212564, 0, 0
    2300, 6.12877e-06, 0.000164649, 0, 0
    2400, 5.63567e-06, 0.000165571, 0, 0
    2500, 5.37985e-06, 0.000141746, 0, 0
    2600, 5.36969e-06, 0.000162726, 0, 0
    2700, 5.19158e-06, 0.000149089, 0, 0
    2800, 4.8423e-06, 0.000132316, 0, 0
    2900, 4.8145e-06, 0.000135751, 0, 0
    3000, 4.49195e-06, 0.000118539, 0, 0
    3100, 4.37125e-06, 0.000112493, 0, 0
    3200, 4.2031e-06, 9.31969e-05, 0, 0
    3300, 4.02578e-06, 9.06448e-05, 0, 0
    3400, 3.95585e-06, 9.43761e-05, 0, 0
    3500, 3.8348e-06, 8.93613e-05, 0, 0
    3600, 3.71163e-06, 8.57786e-05, 0, 0
    3700, 3.59768e-06, 8.18735e-05, 0, 0
    3800, 3.42973e-06, 7.26759e-05, 0, 0
    3900, 3.31153e-06, 6.78635e-05, 0, 0
    4000, 3.20141e-06, 6.43877e-05, 0, 0
    4100, 3.09377e-06, 6.10697e-05, 0, 0
    4200, 2.99e-06, 5.81229e-05, 0, 0
    4300, 2.88964e-06, 5.56962e-05, 0, 0
    4400, 2.79423e-06, 5.37745e-05, 0, 0
    4500, 2.70308e-06, 5.19068e-05, 0, 0
    4600, 2.61585e-06, 5.00815e-05, 0, 0
    4700, 2.53195e-06, 4.83221e-05, 0, 0
    4800, 2.45224e-06, 4.66167e-05, 0, 0
    4900, 2.37678e-06, 4.49491e-05, 0, 0
    5000, 2.30401e-06, 4.33363e-05, 0, 0
    5100, 2.234e-06, 4.1778e-05, 0, 0
    5200, 2.16766e-06, 4.02656e-05, 0, 0
    5300, 2.1039e-06, 3.88054e-05, 0, 0
    5400, 2.0426e-06, 3.73933e-05, 0, 0
    5500, 1.98384e-06, 3.6025e-05, 0, 0
    5600, 1.92706e-06, 3.47141e-05, 0, 0
    5700, 1.87238e-06, 3.34502e-05, 0, 0
    5800, 1.82005e-06, 3.22258e-05, 0, 0
    5900, 1.76988e-06, 3.1053e-05, 0, 0
    6000, 1.71898e-06, 2.99828e-05, 0, 0
    6100, 1.67029e-06, 2.8928e-05, 0, 0
    6200, 1.62305e-06, 2.76465e-05, 0, 0
    6300, 1.58126e-06, 2.67473e-05, 0, 0
    6400, 1.53971e-06, 2.57659e-05, 0, 0
    6500, 1.49954e-06, 2.48267e-05, 0, 0
    6600, 1.46076e-06, 2.39222e-05, 0, 0
    6700, 1.42329e-06, 2.30505e-05, 0, 0
    6800, 1.38715e-06, 2.22105e-05, 0, 0
    6900, 1.35222e-06, 2.14011e-05, 0, 0
    7000, 1.31878e-06, 2.06211e-05, 0, 0
    7100, 1.28673e-06, 1.98693e-05, 0, 0
    7200, 1.25593e-06, 1.9146e-05, 0, 0
    7300, 1.2262e-06, 1.84488e-05, 0, 0
    7400, 1.19761e-06, 1.77733e-05, 0, 0
    7500, 1.1699e-06, 1.71265e-05, 0, 0
    7600, 1.14317e-06, 1.65025e-05, 0, 0
    7700, 1.11748e-06, 1.58978e-05, 0, 0
    7800, 1.09272e-06, 1.53188e-05, 0, 0
    7900, 1.06896e-06, 1.47602e-05, 0, 0
    8000, 1.04616e-06, 1.42189e-05, 0, 0
    8100, 1.0241e-06, 1.37005e-05, 0, 0
    8200, 1.0029e-06, 1.32566e-05, 0, 0
    8300, 9.81426e-07, 1.27553e-05, 0, 0
    8400, 9.61604e-07, 1.22876e-05, 0, 0
    8500, 9.42695e-07, 1.18334e-05, 0, 0
    8600, 9.24408e-07, 1.13981e-05, 0, 0
    8700, 9.06711e-07, 1.09783e-05, 0, 0
    8800, 8.8979e-07, 1.06326e-05, 0, 0
    8900, 8.75093e-07, 1.02409e-05, 0, 0
    9000, 8.61255e-07, 9.87858e-06, 0, 0
    9100, 8.46465e-07, 9.55283e-06, 0, 0
    9200, 8.31904e-07, 9.23074e-06, 0, 0
    9300, 8.17559e-07, 8.92251e-06, 0, 0
    9400, 8.03648e-07, 8.6251e-06, 0, 0
    9500, 7.90233e-07, 8.33687e-06, 0, 0
    9600, 7.77157e-07, 8.061e-06, 0, 0
    9700, 7.6447e-07, 7.79477e-06, 0, 0
    9800, 7.52292e-07, 7.53673e-06, 0, 0
    9900, 7.41269e-07, 7.29507e-06, 0, 0
    10000, 7.29718e-07, 7.04434e-06, 0, 0
    10100, 7.18384e-07, 6.82055e-06, 0, 0
    10200, 7.07884e-07, 6.52992e-06, 0, 0
    10300, 6.96939e-07, 6.34683e-06, 0, 0
    10400, 6.86436e-07, 6.15139e-06, 0, 0
    10500, 6.76181e-07, 5.95658e-06, 0, 0
    10600, 6.66199e-07, 5.76879e-06, 0, 0
    10700, 6.56554e-07, 5.58701e-06, 0, 0
    10800, 6.47151e-07, 5.41215e-06, 0, 0
    10900, 6.38026e-07, 5.24334e-06, 0, 0
    11000, 6.29176e-07, 5.0799e-06, 0, 0
    11100, 6.206e-07, 4.92157e-06, 0, 0
    11200, 6.12294e-07, 4.77017e-06, 0, 0
    11300, 6.04284e-07, 4.62266e-06, 0, 0
    11400, 5.96534e-07, 4.48184e-06, 0, 0
    11500, 5.89039e-07, 4.34434e-06, 0, 0
    11600, 5.81692e-07, 4.21336e-06, 0, 0
    11700, 5.74657e-07, 4.08584e-06, 0, 0
    11800, 5.67808e-07, 3.96206e-06, 0, 0
    11900, 5.62279e-07, 3.83511e-06, 0, 0
    12000, 5.55711e-07, 3.72452e-06, 0, 0
    12100, 5.49558e-07, 3.61317e-06, 0, 0
    12200, 5.43626e-07, 3.41348e-06, 0, 0
    12300, 5.37724e-07, 3.45051e-06, 0, 0
    12400, 5.32504e-07, 3.27386e-06, 0, 0
    12500, 5.27323e-07, 3.19321e-06, 0, 0
    12600, 5.22391e-07, 3.10273e-06, 0, 0
    12700, 5.17612e-07, 3.01579e-06, 0, 0
    12800, 5.1299e-07, 2.93036e-06, 0, 0
    12900, 5.08463e-07, 2.8489e-06, 0, 0
    13000, 5.03982e-07, 2.76995e-06, 0, 0
    13100, 4.99589e-07, 2.69333e-06, 0, 0
    13200, 4.9526e-07, 2.61904e-06, 0, 0
    13300, 4.91224e-07, 2.54921e-06, 0, 0
    13400, 4.86415e-07, 2.45693e-06, 0, 0
    13500, 4.81429e-07, 2.22501e-06, 0, 0
    13600, 4.77649e-07, 2.18812e-06, 0, 0
    13700, 4.73749e-07, 2.1216e-06, 0, 0
    13800, 4.69567e-07, 2.08169e-06, 0, 0
    13900, 4.6477e-07, 1.8797e-06, 0, 0
    14000, 4.57802e-07, 1.9844e-06, 0, 0
    14100, 4.54871e-07, 1.89066e-06, 0, 0
    14200, 4.51736e-07, 1.85994e-06, 0, 0
    14300, 4.48713e-07, 1.83546e-06, 0, 0
    14400, 4.46277e-07, 1.54923e-06, 0, 0
    14500, 4.43632e-07, 1.76262e-06, 0, 0
    14600, 4.41354e-07, 1.71537e-06, 0, 0
    14700, 4.40435e-07, 1.42743e-06, 0, 0
    14800, 4.38796e-07, 1.44174e-06, 0, 0
    14900, 4.31749e-07, 1.44006e-06, 0, 0
    15000, 4.28939e-07, 9.9089e-07, 0, 0
    15100, 4.26295e-07, 9.92194e-07, 0, 0
    15200, 4.22943e-07, 9.86039e-07, 0, 0
    15300, 4.21328e-07, 9.61452e-07, 0, 0
    15400, 4.1884e-07, 9.50262e-07, 0, 0
    15500, 4.172e-07, 1.29761e-06, 0, 0
    15600, 4.14364e-07, 9.29061e-07, 0, 0
    15700, 4.11671e-07, 9.22656e-07, 0, 0
    15800, 4.09728e-07, 9.13269e-07, 0, 0
    15900, 4.0791e-07, 8.93983e-07, 0, 0
    16000, 4.05907e-07, 8.75827e-07, 0, 0
    16100, 4.03457e-07, 8.7964e-07, 0, 0
    16200, 4.01486e-07, 8.65496e-07, 0, 0
    16300, 3.9877e-07, 8.68558e-07, 0, 0
    16400, 3.97491e-07, 8.41618e-07, 0, 0
    16500, 3.94577e-07, 8.45568e-07, 0, 0
    16600, 3.92628e-07, 8.38609e-07, 0, 0
    16700, 3.91666e-07, 8.09596e-07, 0, 0
    16800, 3.89739e-07, 1.1812e-06, 0, 0
    16900, 3.86856e-07, 8.11039e-07, 0, 0
    17000, 3.8512e-07, 8.06237e-07, 0, 0
    17100, 3.84212e-07, 7.72229e-07, 0, 0
    17200, 3.81709e-07, 7.87171e-07, 0, 0
    17300, 3.80194e-07, 7.74491e-07, 0, 0
    17400, 3.78444e-07, 7.66401e-07, 0, 0
    17500, 3.76795e-07, 7.58428e-07, 0, 0
    17600, 3.75645e-07, 7.084e-07, 0, 0
    17700, 3.74133e-07, 6.96758e-07, 0, 0
    17800, 3.72467e-07, 6.82644e-07, 0, 0
    17900, 3.70764e-07, 6.9681e-07, 0, 0
    18000, 3.68067e-07, 7.22673e-07, 0, 0
    18100, 3.67631e-07, 1.04479e-06, 0, 0
    18200, 3.66161e-07, 6.81562e-07, 0, 0
    18300, 3.64574e-07, 6.96392e-07, 0, 0
    18400, 3.63282e-07, 6.66445e-07, 0, 0
    18500, 3.61608e-07, 7.00086e-07, 0, 0
    18600, 3.59665e-07, 6.90837e-07, 0, 0
    18700, 3.58582e-07, 6.84342e-07, 0, 0
    18800, 3.57799e-07, 6.41233e-07, 0, 0
    18900, 3.56811e-07, 6.4151e-07, 0, 0
    19000, 3.55677e-07, 6.64343e-07, 0, 0
    19100, 3.54514e-07, 6.26485e-07, 0, 0
    19200, 3.5322e-07, 6.15198e-07, 0, 0
    19300, 3.52084e-07, 6.21951e-07, 0, 0
    19400, 3.50385e-07, 6.4173e-07, 0, 0
    19500, 3.49782e-07, 5.9976e-07, 0, 0
    19600, 3.4908e-07, 6.13455e-07, 0, 0
    19700, 3.47693e-07, 5.8684e-07, 0, 0
    19800, 3.46513e-07, 5.82743e-07, 0, 0
    19900, 3.45192e-07, 6.1888e-07, 0, 0
--> FOAM Warning : Max iterations reached within momentum loop
Max sigmaEq (von Mises stress) = 351197
ExecutionTime = 101.59 s  ClockTime = 102 s

Jacobian determinant max. 1.00126 min. 0.999012

Time = 6

Evolving solid solver
Solving the total Lagrangian form of the momentum equation for D
    Corr, res, relRes, matRes, iters
    100, 0.000114278, 0.00229067, 0, 0
    200, 2.44414e-05, 0.000587414, 0, 0
    300, 2.73006e-05, 0.00097233, 0, 0
    400, 2.70307e-05, 0.00107817, 0, 0
    500, 2.60162e-05, 0.00114976, 0, 0
    600, 2.51327e-05, 0.00122229, 0, 0
    700, 2.42952e-05, 0.00130465, 0, 0
    800, 2.34783e-05, 0.00140021, 0, 0
    900, 2.29854e-05, 0.00151228, 0, 0
    1000, 2.28072e-05, 0.00164125, 0, 0
    1100, 2.26919e-05, 0.00179572, 0, 0
    1200, 2.25593e-05, 0.001972, 0, 0
    1300, 2.24291e-05, 0.00218564, 0, 0
    1400, 2.24193e-05, 0.00245336, 0, 0
    1500, 2.23891e-05, 0.00267038, 0, 0
    1600, 1.63996e-05, 0.00114763, 0, 0
    1700, 1.36292e-05, 0.000635627, 0, 0
    1800, 9.72715e-06, 0.000637519, 0, 0
    1900, 8.55483e-06, 0.000355147, 0, 0
    2000, 6.6557e-06, 0.000195123, 0, 0
    2100, 4.94667e-06, 0.000178722, 0, 0
    2200, 4.70297e-06, 0.00016377, 0, 0
    2300, 4.39695e-06, 0.000146552, 0, 0
    2400, 4.11317e-06, 0.00014433, 0, 0
    2500, 3.942e-06, 0.000121854, 0, 0
    2600, 3.77955e-06, 0.000130157, 0, 0
    2700, 3.75749e-06, 0.000121931, 0, 0
    2800, 3.58153e-06, 0.00011255, 0, 0
    2900, 3.43305e-06, 0.000107372, 0, 0
    3000, 3.33688e-06, 0.000100826, 0, 0
    3100, 3.2178e-06, 9.59715e-05, 0, 0
    3200, 3.0942e-06, 9.13338e-05, 0, 0
    3300, 2.98645e-06, 8.73244e-05, 0, 0
    3400, 2.88894e-06, 8.33513e-05, 0, 0
    3500, 2.79738e-06, 7.96091e-05, 0, 0
    3600, 2.71247e-06, 7.59504e-05, 0, 0
    3700, 2.63694e-06, 7.26565e-05, 0, 0
    3800, 2.55944e-06, 6.94773e-05, 0, 0
    3900, 2.48358e-06, 6.64681e-05, 0, 0
    4000, 2.41053e-06, 6.36046e-05, 0, 0
    4100, 2.34095e-06, 6.08806e-05, 0, 0
    4200, 2.27458e-06, 5.82649e-05, 0, 0
    4300, 2.21058e-06, 5.5764e-05, 0, 0
    4400, 2.14923e-06, 5.33829e-05, 0, 0
    4500, 2.09025e-06, 5.11148e-05, 0, 0
    4600, 2.03393e-06, 4.89537e-05, 0, 0
    4700, 1.97981e-06, 4.68936e-05, 0, 0
    4800, 1.9276e-06, 4.49293e-05, 0, 0
    4900, 1.87725e-06, 4.30557e-05, 0, 0
    5000, 1.82905e-06, 4.12681e-05, 0, 0
    5100, 1.78312e-06, 3.95619e-05, 0, 0
    5200, 1.73907e-06, 3.79329e-05, 0, 0
    5300, 1.69741e-06, 3.63928e-05, 0, 0
    5400, 1.65726e-06, 3.49587e-05, 0, 0
    5500, 1.61848e-06, 3.35877e-05, 0, 0
    5600, 1.58042e-06, 3.20932e-05, 0, 0
    5700, 1.53915e-06, 3.09171e-05, 0, 0
    5800, 1.50398e-06, 2.97232e-05, 0, 0
    5900, 1.47056e-06, 2.85798e-05, 0, 0
    6000, 1.43883e-06, 2.75428e-05, 0, 0
    6100, 1.4085e-06, 2.65802e-05, 0, 0
    6200, 1.37947e-06, 2.56496e-05, 0, 0
    6300, 1.3514e-06, 2.48029e-05, 0, 0
    6400, 1.32498e-06, 2.39214e-05, 0, 0
    6500, 1.29965e-06, 2.3076e-05, 0, 0
    6600, 1.27516e-06, 2.22573e-05, 0, 0
    6700, 1.25143e-06, 2.14665e-05, 0, 0
    6800, 1.22855e-06, 2.07031e-05, 0, 0
    6900, 1.20655e-06, 1.99659e-05, 0, 0
    7000, 1.18536e-06, 1.92543e-05, 0, 0
    7100, 1.16516e-06, 1.85672e-05, 0, 0
    7200, 1.14564e-06, 1.7904e-05, 0, 0
    7300, 1.12674e-06, 1.72638e-05, 0, 0
    7400, 1.10854e-06, 1.66458e-05, 0, 0
    7500, 1.09182e-06, 1.61066e-05, 0, 0
    7600, 1.07742e-06, 1.54867e-05, 0, 0
    7700, 1.0619e-06, 1.49366e-05, 0, 0
    7800, 1.04677e-06, 1.44041e-05, 0, 0
    7900, 1.03277e-06, 1.39178e-05, 0, 0
    8000, 1.01799e-06, 1.34119e-05, 0, 0
    8100, 1.00359e-06, 1.2922e-05, 0, 0
    8200, 9.89823e-07, 1.24566e-05, 0, 0
    8300, 9.76446e-07, 1.2006e-05, 0, 0
    8400, 9.63429e-07, 1.15716e-05, 0, 0
    8500, 9.50787e-07, 1.11524e-05, 0, 0
    8600, 9.38524e-07, 1.0748e-05, 0, 0
    8700, 9.26587e-07, 1.03578e-05, 0, 0
    8800, 9.14987e-07, 1.00034e-05, 0, 0
    8900, 9.03741e-07, 9.67825e-06, 0, 0
    9000, 8.93019e-07, 9.34376e-06, 0, 0
    9100, 8.82737e-07, 9.04328e-06, 0, 0
    9200, 8.7233e-07, 8.75756e-06, 0, 0
    9300, 8.62208e-07, 8.481e-06, 0, 0
    9400, 8.52355e-07, 8.21883e-06, 0, 0
    9500, 8.42773e-07, 7.96726e-06, 0, 0
    9600, 8.33539e-07, 7.72308e-06, 0, 0
    9700, 8.24538e-07, 7.49155e-06, 0, 0
    9800, 8.15803e-07, 7.26926e-06, 0, 0
    9900, 8.0737e-07, 7.05331e-06, 0, 0
    10000, 7.99145e-07, 6.84863e-06, 0, 0
    10100, 7.91229e-07, 6.65209e-06, 0, 0
    10200, 7.84988e-07, 6.41422e-06, 0, 0
    10300, 7.78234e-07, 6.25707e-06, 0, 0
    10400, 7.71379e-07, 6.08496e-06, 0, 0
    10500, 7.64654e-07, 5.91763e-06, 0, 0
    10600, 7.58007e-07, 5.75895e-06, 0, 0
    10700, 7.51474e-07, 5.60628e-06, 0, 0
    10800, 7.45066e-07, 5.45981e-06, 0, 0
    10900, 7.37466e-07, 5.23594e-06, 0, 0
    11000, 7.30693e-07, 5.11101e-06, 0, 0
    11100, 7.24537e-07, 4.98936e-06, 0, 0
    11200, 7.18685e-07, 4.87172e-06, 0, 0
    11300, 7.13016e-07, 4.7565e-06, 0, 0
    11400, 7.0755e-07, 4.64613e-06, 0, 0
    11500, 7.02144e-07, 4.54264e-06, 0, 0
    11600, 6.96846e-07, 4.43954e-06, 0, 0
    11700, 6.91676e-07, 4.34236e-06, 0, 0
    11800, 6.86631e-07, 4.24808e-06, 0, 0
    11900, 6.80704e-07, 4.18414e-06, 0, 0
    12000, 6.75775e-07, 4.04794e-06, 0, 0
    12100, 6.71108e-07, 3.99205e-06, 0, 0
    12200, 6.6666e-07, 3.8016e-06, 0, 0
    12300, 6.62766e-07, 3.74958e-06, 0, 0
    12400, 6.5862e-07, 3.5353e-06, 0, 0
    12500, 6.49849e-07, 3.54426e-06, 0, 0
    12600, 6.4574e-07, 3.49257e-06, 0, 0
    12700, 6.41356e-07, 3.4396e-06, 0, 0
    12800, 6.40859e-07, 3.47598e-06, 0, 0
    12900, 6.34833e-07, 3.39172e-06, 0, 0
    13000, 6.32576e-07, 3.12738e-06, 0, 0
    13100, 6.27001e-07, 3.30623e-06, 0, 0
    13200, 6.20602e-07, 3.19259e-06, 0, 0
    13300, 6.17169e-07, 3.22707e-06, 0, 0
    13400, 6.13398e-07, 3.0249e-06, 0, 0
    13500, 6.1107e-07, 2.89486e-06, 0, 0
    13600, 6.04728e-07, 3.03503e-06, 0, 0
    13700, 6.03134e-07, 2.72279e-06, 0, 0
    13800, 5.98209e-07, 2.99676e-06, 0, 0
    13900, 5.98037e-07, 2.65855e-06, 0, 0
    14000, 5.93722e-07, 2.62283e-06, 0, 0
    14100, 5.89204e-07, 2.91662e-06, 0, 0
    14200, 5.89222e-07, 2.55951e-06, 0, 0
    14300, 5.84549e-07, 2.51791e-06, 0, 0
    14400, 5.81747e-07, 2.54156e-06, 0, 0
    14500, 5.78952e-07, 2.51346e-06, 0, 0
    14600, 5.7344e-07, 2.70433e-06, 0, 0
    14700, 5.71673e-07, 2.8106e-06, 0, 0
    14800, 5.68477e-07, 2.32913e-06, 0, 0
    14900, 5.66015e-07, 2.3142e-06, 0, 0
    15000, 5.64975e-07, 2.01447e-06, 0, 0
    15100, 5.62759e-07, 1.86869e-06, 0, 0
    15200, 5.60478e-07, 1.86539e-06, 0, 0
    15300, 5.57114e-07, 2.23156e-06, 0, 0
    15400, 5.56969e-07, 1.92275e-06, 0, 0
    15500, 5.53152e-07, 2.23163e-06, 0, 0
    15600, 5.52083e-07, 1.80801e-06, 0, 0
    15700, 5.49435e-07, 1.77367e-06, 0, 0
    15800, 5.47544e-07, 2.25783e-06, 0, 0
    15900, 5.45761e-07, 1.75629e-06, 0, 0
    16000, 5.44999e-07, 1.76482e-06, 0, 0
    16100, 5.42139e-07, 1.74048e-06, 0, 0
    16200, 5.40328e-07, 1.72926e-06, 0, 0
    16300, 5.38729e-07, 2.90825e-06, 0, 0
    16400, 5.36831e-07, 2.66158e-06, 0, 0
    16500, 5.3796e-07, 1.78034e-06, 0, 0
    16600, 5.36617e-07, 1.6584e-06, 0, 0
    16700, 5.31445e-07, 1.67365e-06, 0, 0
    16800, 5.29846e-07, 1.65847e-06, 0, 0
    16900, 5.28146e-07, 1.67582e-06, 0, 0
    17000, 5.27385e-07, 1.63562e-06, 0, 0
    17100, 5.24762e-07, 1.64335e-06, 0, 0
    17200, 5.22771e-07, 1.6446e-06, 0, 0
    17300, 5.21352e-07, 1.595e-06, 0, 0
    17400, 5.19756e-07, 1.61366e-06, 0, 0
    17500, 5.18918e-07, 1.61185e-06, 0, 0
    17600, 5.16498e-07, 1.59018e-06, 0, 0
    17700, 5.14544e-07, 1.55932e-06, 0, 0
    17800, 5.13003e-07, 1.57365e-06, 0, 0
    17900, 5.11555e-07, 1.53241e-06, 0, 0
    18000, 5.12283e-07, 2.3559e-06, 0, 0
    18100, 5.08558e-07, 1.52409e-06, 0, 0
    18200, 5.06862e-07, 1.50038e-06, 0, 0
    18300, 5.08717e-07, 1.59279e-06, 0, 0
    18400, 5.03848e-07, 1.50669e-06, 0, 0
    18500, 5.02486e-07, 1.47411e-06, 0, 0
    18600, 5.0076e-07, 1.45278e-06, 0, 0
    18700, 5.00998e-07, 1.42106e-06, 0, 0
    18800, 4.97488e-07, 1.60309e-06, 0, 0
    18900, 4.96463e-07, 1.45381e-06, 0, 0
    19000, 4.94974e-07, 1.44541e-06, 0, 0
    19100, 4.93666e-07, 1.41345e-06, 0, 0
    19200, 4.91956e-07, 1.40479e-06, 0, 0
    19300, 4.90485e-07, 1.39021e-06, 0, 0
    19400, 4.89149e-07, 1.38042e-06, 0, 0
    19500, 4.878e-07, 1.37082e-06, 0, 0
    19600, 4.86475e-07, 1.36221e-06, 0, 0
    19700, 4.84916e-07, 1.35506e-06, 0, 0
    19800, 4.83671e-07, 1.34599e-06, 0, 0
    19900, 4.82448e-07, 1.33814e-06, 0, 0
--> FOAM Warning : Max iterations reached within momentum loop
Max sigmaEq (von Mises stress) = 411459
ExecutionTime = 121.84 s  ClockTime = 122 s

Jacobian determinant max. 1.00177 min. 0.999065

Time = 7

Evolving solid solver
Solving the total Lagrangian form of the momentum equation for D
    Corr, res, relRes, matRes, iters
    100, 9.77101e-05, 0.00223068, 0, 0
    200, 2.18148e-05, 0.000651563, 0, 0
    300, 2.52914e-05, 0.00104465, 0, 0
    400, 2.50047e-05, 0.00116227, 0, 0
    500, 2.4197e-05, 0.00124932, 0, 0
    600, 2.34364e-05, 0.0013453, 0, 0
    700, 2.28319e-05, 0.00145585, 0, 0
    800, 2.2616e-05, 0.00158419, 0, 0
    900, 2.24271e-05, 0.00173666, 0, 0
    1000, 2.22868e-05, 0.00191845, 0, 0
    1100, 2.2216e-05, 0.00214786, 0, 0
    1200, 2.21566e-05, 0.0024222, 0, 0
    1300, 2.2092e-05, 0.00275641, 0, 0
    1400, 2.46497e-05, 0.00218478, 0, 0
    1500, 1.52069e-05, 0.00131431, 0, 0
    1600, 1.18526e-05, 0.000893306, 0, 0
    1700, 8.61257e-06, 0.000523714, 0, 0
    1800, 7.36678e-06, 0.000499734, 0, 0
    1900, 6.2912e-06, 0.000296392, 0, 0
    2000, 4.78199e-06, 0.00025567, 0, 0
    2100, 4.45693e-06, 0.000152772, 0, 0
    2200, 3.61322e-06, 0.000152249, 0, 0
    2300, 3.38807e-06, 0.000140145, 0, 0
    2400, 3.21626e-06, 0.000120584, 0, 0
    2500, 3.02895e-06, 0.000126064, 0, 0
    2600, 2.90768e-06, 0.000116489, 0, 0
    2700, 2.82415e-06, 9.99975e-05, 0, 0
    2800, 2.70893e-06, 0.000103348, 0, 0
    2900, 2.59117e-06, 9.83273e-05, 0, 0
    3000, 2.48867e-06, 9.37619e-05, 0, 0
    3100, 2.39217e-06, 8.9427e-05, 0, 0
    3200, 2.3014e-06, 8.53422e-05, 0, 0
    3300, 2.21558e-06, 8.14843e-05, 0, 0
    3400, 2.13401e-06, 7.78369e-05, 0, 0
    3500, 2.05491e-06, 7.4291e-05, 0, 0
    3600, 1.97978e-06, 7.10906e-05, 0, 0
    3700, 1.90914e-06, 6.79567e-05, 0, 0
    3800, 1.83757e-06, 6.50666e-05, 0, 0
    3900, 1.77768e-06, 6.22487e-05, 0, 0
    4000, 1.71768e-06, 5.95702e-05, 0, 0
    4100, 1.65938e-06, 5.70028e-05, 0, 0
    4200, 1.60331e-06, 5.45615e-05, 0, 0
    4300, 1.54925e-06, 5.22381e-05, 0, 0
    4400, 1.49774e-06, 5.00259e-05, 0, 0
    4500, 1.44846e-06, 4.79182e-05, 0, 0
    4600, 1.40308e-06, 4.58438e-05, 0, 0
    4700, 1.35736e-06, 4.39641e-05, 0, 0
    4800, 1.31452e-06, 4.21438e-05, 0, 0
    4900, 1.27334e-06, 4.04105e-05, 0, 0
    5000, 1.23398e-06, 3.8752e-05, 0, 0
    5100, 1.19626e-06, 3.71653e-05, 0, 0
    5200, 1.16018e-06, 3.56496e-05, 0, 0
    5300, 1.12578e-06, 3.42021e-05, 0, 0
    5400, 1.09281e-06, 3.28136e-05, 0, 0
    5500, 1.06104e-06, 3.14872e-05, 0, 0
    5600, 1.03061e-06, 3.02198e-05, 0, 0
    5700, 1.0017e-06, 2.90032e-05, 0, 0
    5800, 9.74053e-07, 2.78404e-05, 0, 0
    5900, 9.47867e-07, 2.67286e-05, 0, 0
    6000, 9.23145e-07, 2.56608e-05, 0, 0
    6100, 8.99407e-07, 2.46397e-05, 0, 0
    6200, 8.76615e-07, 2.37061e-05, 0, 0
    6300, 8.54765e-07, 2.28799e-05, 0, 0
    6400, 8.33644e-07, 2.20837e-05, 0, 0
    6500, 8.13321e-07, 2.13164e-05, 0, 0
    6600, 7.93949e-07, 2.05718e-05, 0, 0
    6700, 7.75361e-07, 1.98541e-05, 0, 0
    6800, 7.57456e-07, 1.91611e-05, 0, 0
    6900, 7.40589e-07, 1.83744e-05, 0, 0
    7000, 7.22489e-07, 1.78109e-05, 0, 0
    7100, 7.06563e-07, 1.72168e-05, 0, 0
    7200, 6.91226e-07, 1.66123e-05, 0, 0
    7300, 6.76694e-07, 1.6035e-05, 0, 0
    7400, 6.62815e-07, 1.54755e-05, 0, 0
    7500, 6.49752e-07, 1.49337e-05, 0, 0
    7600, 6.37467e-07, 1.44108e-05, 0, 0
    7700, 6.25771e-07, 1.39061e-05, 0, 0
    7800, 6.14711e-07, 1.34187e-05, 0, 0
    7900, 6.04098e-07, 1.29483e-05, 0, 0
    8000, 5.93897e-07, 1.24942e-05, 0, 0
    8100, 5.84143e-07, 1.20558e-05, 0, 0
    8200, 5.74768e-07, 1.16328e-05, 0, 0
    8300, 5.65777e-07, 1.12245e-05, 0, 0
    8400, 5.57082e-07, 1.08304e-05, 0, 0
    8500, 5.48674e-07, 1.04502e-05, 0, 0
    8600, 5.406e-07, 1.00815e-05, 0, 0
    8700, 5.33474e-07, 9.71901e-06, 0, 0
    8800, 5.26624e-07, 9.37189e-06, 0, 0
    8900, 5.20262e-07, 9.03536e-06, 0, 0
    9000, 5.13976e-07, 8.72035e-06, 0, 0
    9100, 5.07796e-07, 8.41538e-06, 0, 0
    9200, 5.01728e-07, 8.1215e-06, 0, 0
    9300, 4.95781e-07, 7.83762e-06, 0, 0
    9400, 4.89981e-07, 7.56357e-06, 0, 0
    9500, 4.84394e-07, 7.29895e-06, 0, 0
    9600, 4.78996e-07, 7.04345e-06, 0, 0
    9700, 4.73841e-07, 6.79677e-06, 0, 0
    9800, 4.6881e-07, 6.5586e-06, 0, 0
    9900, 4.63936e-07, 6.32865e-06, 0, 0
    10000, 4.59212e-07, 6.10666e-06, 0, 0
    10100, 4.54628e-07, 5.89234e-06, 0, 0
    10200, 4.50193e-07, 5.68545e-06, 0, 0
    10300, 4.45868e-07, 5.48573e-06, 0, 0
    10400, 4.41728e-07, 5.28027e-06, 0, 0
    10500, 4.37119e-07, 5.09784e-06, 0, 0
    10600, 4.32824e-07, 4.92116e-06, 0, 0
    10700, 4.28752e-07, 4.75018e-06, 0, 0
    10800, 4.2488e-07, 4.58341e-06, 0, 0
    10900, 4.21124e-07, 4.42392e-06, 0, 0
    11000, 4.18232e-07, 4.30689e-06, 0, 0
    11100, 4.14931e-07, 4.15721e-06, 0, 0
    11200, 4.11795e-07, 3.98412e-06, 0, 0
    11300, 4.08633e-07, 3.85987e-06, 0, 0
    11400, 4.05549e-07, 3.74118e-06, 0, 0
    11500, 4.02561e-07, 3.6252e-06, 0, 0
    11600, 3.99642e-07, 3.51464e-06, 0, 0
    11700, 3.96807e-07, 3.40796e-06, 0, 0
    11800, 3.9407e-07, 3.30394e-06, 0, 0
    11900, 3.91392e-07, 3.20478e-06, 0, 0
    12000, 3.88791e-07, 3.10913e-06, 0, 0
    12100, 3.86279e-07, 3.01587e-06, 0, 0
    12200, 3.83832e-07, 2.92699e-06, 0, 0
    12300, 3.81277e-07, 2.8955e-06, 0, 0
    12400, 3.79278e-07, 2.69954e-06, 0, 0
    12500, 3.77577e-07, 2.62625e-06, 0, 0
    12600, 3.75878e-07, 2.5538e-06, 0, 0
    12700, 3.73813e-07, 2.41939e-06, 0, 0
    12800, 3.71756e-07, 2.38157e-06, 0, 0
    12900, 3.69789e-07, 2.32474e-06, 0, 0
    13000, 3.6788e-07, 2.26592e-06, 0, 0
    13100, 3.66403e-07, 2.19066e-06, 0, 0
    13200, 3.6493e-07, 2.06081e-06, 0, 0
    13300, 3.61557e-07, 2.01214e-06, 0, 0
    13400, 3.58941e-07, 1.93573e-06, 0, 0
    13500, 3.58489e-07, 1.84721e-06, 0, 0
    13600, 3.57032e-07, 1.76471e-06, 0, 0
    13700, 3.55585e-07, 1.77454e-06, 0, 0
    13800, 3.5445e-07, 1.67408e-06, 0, 0
    13900, 3.53577e-07, 1.65264e-06, 0, 0
    14000, 3.53104e-07, 1.5251e-06, 0, 0
    14100, 3.52132e-07, 1.52566e-06, 0, 0
    14200, 3.51242e-07, 1.52033e-06, 0, 0
    14300, 3.50404e-07, 1.48644e-06, 0, 0
    14400, 3.49585e-07, 1.36449e-06, 0, 0
    14500, 3.48838e-07, 1.47317e-06, 0, 0
    14600, 3.47959e-07, 1.30443e-06, 0, 0
    14700, 3.47074e-07, 1.27678e-06, 0, 0
    14800, 3.45864e-07, 1.26664e-06, 0, 0
    14900, 3.45569e-07, 1.24309e-06, 0, 0
    15000, 3.446e-07, 1.21708e-06, 0, 0
    15100, 3.43986e-07, 1.23293e-06, 0, 0
    15200, 3.43263e-07, 9.6263e-07, 0, 0
    15300, 3.42619e-07, 8.49957e-07, 0, 0
    15400, 3.41923e-07, 9.05282e-07, 0, 0
    15500, 3.41079e-07, 8.7806e-07, 0, 0
    15600, 3.40181e-07, 1.02991e-06, 0, 0
    15700, 3.39608e-07, 8.65475e-07, 0, 0
    15800, 3.39093e-07, 8.75092e-07, 0, 0
    15900, 3.38357e-07, 8.52505e-07, 0, 0
    16000, 3.37914e-07, 8.21366e-07, 0, 0
    16100, 3.37194e-07, 8.3184e-07, 0, 0
    16200, 3.36723e-07, 7.65436e-07, 0, 0
    16300, 3.3598e-07, 8.20623e-07, 0, 0
    16400, 3.35546e-07, 7.58521e-07, 0, 0
    16500, 3.34847e-07, 7.78864e-07, 0, 0
    16600, 3.34256e-07, 7.40402e-07, 0, 0
    16700, 3.33701e-07, 7.64953e-07, 0, 0
    16800, 3.33118e-07, 7.28024e-07, 0, 0
    16900, 3.32572e-07, 7.50995e-07, 0, 0
    17000, 3.32021e-07, 7.44659e-07, 0, 0
    17100, 3.3146e-07, 7.10386e-07, 0, 0
    17200, 3.30941e-07, 7.32678e-07, 0, 0
    17300, 3.30411e-07, 7.27632e-07, 0, 0
    17400, 3.29893e-07, 7.21444e-07, 0, 0
    17500, 3.29368e-07, 7.14733e-07, 0, 0
    17600, 3.28854e-07, 7.08869e-07, 0, 0
    17700, 3.2835e-07, 7.03224e-07, 0, 0
    17800, 3.27849e-07, 6.96107e-07, 0, 0
    17900, 3.27352e-07, 6.66279e-07, 0, 0
    18000, 3.26876e-07, 6.85862e-07, 0, 0
    18100, 3.2639e-07, 6.7961e-07, 0, 0
    18200, 3.25906e-07, 6.74148e-07, 0, 0
    18300, 3.25439e-07, 6.69254e-07, 0, 0
    18400, 3.24944e-07, 6.39488e-07, 0, 0
    18500, 3.24468e-07, 6.34792e-07, 0, 0
    18600, 3.24014e-07, 6.52545e-07, 0, 0
    18700, 3.23541e-07, 6.2451e-07, 0, 0
    18800, 3.23098e-07, 6.4184e-07, 0, 0
    18900, 3.22634e-07, 6.14764e-07, 0, 0
    19000, 3.22166e-07, 6.09916e-07, 0, 0
    19100, 3.21713e-07, 6.04678e-07, 0, 0
    19200, 3.21302e-07, 6.2258e-07, 0, 0
    19300, 3.20815e-07, 5.95147e-07, 0, 0
    19400, 3.20427e-07, 6.13534e-07, 0, 0
    19500, 3.19984e-07, 6.07639e-07, 0, 0
    19600, 3.19571e-07, 6.03398e-07, 0, 0
    19700, 3.19117e-07, 5.78167e-07, 0, 0
    19800, 3.187e-07, 5.72828e-07, 0, 0
    19900, 3.18306e-07, 5.89338e-07, 0, 0
--> FOAM Warning : Max iterations reached within momentum loop
Max sigmaEq (von Mises stress) = 476781
ExecutionTime = 142.83 s  ClockTime = 143 s

Jacobian determinant max. 1.00113 min. 0.999011

Time = 8

Evolving solid solver
Solving the total Lagrangian form of the momentum equation for D
    Corr, res, relRes, matRes, iters
    100, 8.45768e-05, 0.00218665, 0, 0
    200, 1.97879e-05, 0.000720272, 0, 0
    300, 2.36297e-05, 0.00112533, 0, 0
    400, 2.34604e-05, 0.00125252, 0, 0
    500, 2.30622e-05, 0.00135576, 0, 0
    600, 2.27246e-05, 0.0014761, 0, 0
    700, 2.2372e-05, 0.00161901, 0, 0
    800, 2.21006e-05, 0.00179108, 0, 0
    900, 2.20188e-05, 0.00200341, 0, 0
    1000, 2.19378e-05, 0.00226273, 0, 0
    1100, 2.1845e-05, 0.00260018, 0, 0
    1200, 2.18245e-05, 0.00304878, 0, 0
    1300, 2.37034e-05, 0.00181325, 0, 0
    1400, 1.51944e-05, 0.00125849, 0, 0
    1500, 9.70042e-06, 0.00063232, 0, 0
    1600, 8.22799e-06, 0.000602887, 0, 0
    1700, 6.28623e-06, 0.000444904, 0, 0
    1800, 4.74449e-06, 0.000201415, 0, 0
    1900, 3.48986e-06, 0.000226744, 0, 0
    2000, 3.10945e-06, 0.000178097, 0, 0
    2100, 2.97876e-06, 0.000167117, 0, 0
    2200, 2.84391e-06, 0.000177941, 0, 0
    2300, 2.66294e-06, 0.000155079, 0, 0
    2400, 2.66392e-06, 0.000147328, 0, 0
    2500, 2.58665e-06, 0.000147523, 0, 0
    2600, 2.44999e-06, 0.000123717, 0, 0
    2700, 2.44664e-06, 0.0001304, 0, 0
    2800, 2.28788e-06, 0.000112213, 0, 0
    2900, 2.2877e-06, 0.000113099, 0, 0
    3000, 2.19527e-06, 9.8597e-05, 0, 0
    3100, 2.11028e-06, 9.47913e-05, 0, 0
    3200, 2.08015e-06, 8.80149e-05, 0, 0
    3300, 1.99564e-06, 8.41376e-05, 0, 0
    3400, 1.94374e-06, 7.92729e-05, 0, 0
    3500, 1.88612e-06, 7.53969e-05, 0, 0
    3600, 1.82573e-06, 7.1792e-05, 0, 0
    3700, 1.77046e-06, 6.83905e-05, 0, 0
    3800, 1.71908e-06, 6.52452e-05, 0, 0
    3900, 1.62403e-06, 5.64945e-05, 0, 0
    4000, 1.56636e-06, 5.29576e-05, 0, 0
    4100, 1.51003e-06, 5.02301e-05, 0, 0
    4200, 1.45507e-06, 4.7693e-05, 0, 0
    4300, 1.4065e-06, 4.59605e-05, 0, 0
    4400, 1.36147e-06, 4.43917e-05, 0, 0
    4500, 1.31824e-06, 4.28587e-05, 0, 0
    4600, 1.27842e-06, 4.13674e-05, 0, 0
    4700, 1.24154e-06, 3.99184e-05, 0, 0
    4800, 1.20681e-06, 3.85044e-05, 0, 0
    4900, 1.17382e-06, 3.71467e-05, 0, 0
    5000, 1.14257e-06, 3.58335e-05, 0, 0
    5100, 1.11304e-06, 3.45569e-05, 0, 0
    5200, 1.08498e-06, 3.33213e-05, 0, 0
    5300, 1.05872e-06, 3.21521e-05, 0, 0
    5400, 1.03384e-06, 3.10103e-05, 0, 0
    5500, 1.0102e-06, 2.99064e-05, 0, 0
    5600, 9.86187e-07, 2.8924e-05, 0, 0
    5700, 9.61893e-07, 2.77494e-05, 0, 0
    5800, 9.39258e-07, 2.67641e-05, 0, 0
    5900, 9.18057e-07, 2.58154e-05, 0, 0
    6000, 8.98134e-07, 2.49001e-05, 0, 0
    6100, 8.79236e-07, 2.40171e-05, 0, 0
    6200, 8.61366e-07, 2.31656e-05, 0, 0
    6300, 8.44525e-07, 2.23445e-05, 0, 0
    6400, 8.28591e-07, 2.15525e-05, 0, 0
    6500, 8.13484e-07, 2.07888e-05, 0, 0
    6600, 7.98995e-07, 2.00522e-05, 0, 0
    6700, 7.85018e-07, 1.93419e-05, 0, 0
    6800, 7.71526e-07, 1.86568e-05, 0, 0
    6900, 7.58512e-07, 1.7996e-05, 0, 0
    7000, 7.45906e-07, 1.73586e-05, 0, 0
    7100, 7.33803e-07, 1.67438e-05, 0, 0
    7200, 7.22026e-07, 1.61647e-05, 0, 0
    7300, 7.1081e-07, 1.54329e-05, 0, 0
    7400, 7.01263e-07, 1.50071e-05, 0, 0
    7500, 6.91739e-07, 1.44859e-05, 0, 0
    7600, 6.82231e-07, 1.40074e-05, 0, 0
    7700, 6.7303e-07, 1.35506e-05, 0, 0
    7800, 6.63993e-07, 1.31091e-05, 0, 0
    7900, 6.55154e-07, 1.26826e-05, 0, 0
    8000, 6.46485e-07, 1.22706e-05, 0, 0
    8100, 6.37997e-07, 1.18729e-05, 0, 0
    8200, 6.29714e-07, 1.14889e-05, 0, 0
    8300, 6.21606e-07, 1.11183e-05, 0, 0
    8400, 6.13736e-07, 1.07612e-05, 0, 0
    8500, 6.06101e-07, 1.04164e-05, 0, 0
    8600, 5.98722e-07, 1.00813e-05, 0, 0
    8700, 5.91554e-07, 9.76055e-06, 0, 0
    8800, 5.84596e-07, 9.45046e-06, 0, 0
    8900, 5.77892e-07, 9.17607e-06, 0, 0
    9000, 5.71311e-07, 8.79325e-06, 0, 0
    9100, 5.64658e-07, 8.51891e-06, 0, 0
    9200, 5.58102e-07, 8.25462e-06, 0, 0
    9300, 5.5171e-07, 8.00065e-06, 0, 0
    9400, 5.45523e-07, 7.75334e-06, 0, 0
    9500, 5.39501e-07, 7.51701e-06, 0, 0
    9600, 5.34585e-07, 7.34758e-06, 0, 0
    9700, 5.29602e-07, 7.07473e-06, 0, 0
    9800, 5.24339e-07, 6.86203e-06, 0, 0
    9900, 5.19226e-07, 6.66047e-06, 0, 0
    10000, 5.1415e-07, 6.45936e-06, 0, 0
    10100, 5.09148e-07, 6.26424e-06, 0, 0
    10200, 5.0423e-07, 6.07651e-06, 0, 0
    10300, 4.99415e-07, 5.89459e-06, 0, 0
    10400, 4.94732e-07, 5.71767e-06, 0, 0
    10500, 4.90102e-07, 5.54939e-06, 0, 0
    10600, 4.85583e-07, 5.38483e-06, 0, 0
    10700, 4.81191e-07, 5.2262e-06, 0, 0
    10800, 4.764e-07, 4.99925e-06, 0, 0
    10900, 4.71498e-07, 4.90404e-06, 0, 0
    11000, 4.67503e-07, 4.76897e-06, 0, 0
    11100, 4.63672e-07, 4.6348e-06, 0, 0
    11200, 4.59939e-07, 4.50449e-06, 0, 0
    11300, 4.56278e-07, 4.37716e-06, 0, 0
    11400, 4.52647e-07, 4.25392e-06, 0, 0
    11500, 4.49098e-07, 4.13502e-06, 0, 0
    11600, 4.45582e-07, 4.02031e-06, 0, 0
    11700, 4.38561e-07, 4.00137e-06, 0, 0
    11800, 4.39308e-07, 3.37295e-06, 0, 0
    11900, 4.3531e-07, 3.6796e-06, 0, 0
    12000, 4.33701e-07, 3.40253e-06, 0, 0
    12100, 4.32019e-07, 3.33801e-06, 0, 0
    12200, 4.30131e-07, 3.22728e-06, 0, 0
    12300, 4.28735e-07, 3.22649e-06, 0, 0
    12400, 4.2718e-07, 3.18129e-06, 0, 0
    12500, 4.254e-07, 3.09123e-06, 0, 0
    12600, 4.23624e-07, 3.02938e-06, 0, 0
    12700, 4.21898e-07, 2.80919e-06, 0, 0
    12800, 4.20532e-07, 2.85412e-06, 0, 0
    12900, 4.18023e-07, 2.32018e-06, 0, 0
    13000, 4.16707e-07, 2.1457e-06, 0, 0
    13100, 4.14806e-07, 2.23779e-06, 0, 0
    13200, 4.13202e-07, 2.04992e-06, 0, 0
    13300, 4.11959e-07, 2.00882e-06, 0, 0
    13400, 4.10798e-07, 2.01575e-06, 0, 0
    13500, 4.08444e-07, 1.90953e-06, 0, 0
    13600, 4.07741e-07, 1.3373e-06, 0, 0
    13700, 4.05126e-07, 1.84777e-06, 0, 0
    13800, 4.04422e-07, 1.30402e-06, 0, 0
    13900, 4.02931e-07, 1.85359e-06, 0, 0
    14000, 4.01599e-07, 1.29373e-06, 0, 0
    14100, 4.00324e-07, 1.28636e-06, 0, 0
    14200, 3.98916e-07, 1.27057e-06, 0, 0
    14300, 3.97519e-07, 1.2575e-06, 0, 0
    14400, 3.96243e-07, 1.25038e-06, 0, 0
    14500, 3.94922e-07, 1.21736e-06, 0, 0
    14600, 3.93691e-07, 1.22448e-06, 0, 0
    14700, 3.92425e-07, 1.19436e-06, 0, 0
    14800, 3.91215e-07, 1.20589e-06, 0, 0
    14900, 3.89985e-07, 1.19557e-06, 0, 0
    15000, 3.88781e-07, 1.16134e-06, 0, 0
    15100, 3.87594e-07, 1.71456e-06, 0, 0
    15200, 3.86462e-07, 1.15982e-06, 0, 0
    15300, 3.85314e-07, 1.11939e-06, 0, 0
    15400, 3.8418e-07, 1.67938e-06, 0, 0
    15500, 3.83011e-07, 1.11006e-06, 0, 0
    15600, 3.81997e-07, 1.08132e-06, 0, 0
    15700, 3.80918e-07, 1.07046e-06, 0, 0
    15800, 3.79848e-07, 1.10317e-06, 0, 0
    15900, 3.78832e-07, 1.06965e-06, 0, 0
    16000, 3.77711e-07, 1.07092e-06, 0, 0
    16100, 3.7674e-07, 1.08154e-06, 0, 0
    16200, 3.75785e-07, 1.02322e-06, 0, 0
    16300, 3.74788e-07, 1.00289e-06, 0, 0
    16400, 3.7378e-07, 1.00266e-06, 0, 0
    16500, 3.72783e-07, 9.90806e-07, 0, 0
    16600, 3.71812e-07, 1.00862e-06, 0, 0
    16700, 3.70922e-07, 1.0218e-06, 0, 0
    16800, 3.70039e-07, 9.75672e-07, 0, 0
    16900, 3.69093e-07, 1.63621e-06, 0, 0
    17000, 3.68158e-07, 9.95723e-07, 0, 0
    17100, 3.67189e-07, 9.3148e-07, 0, 0
    17200, 3.66372e-07, 9.32912e-07, 0, 0
    17300, 3.65359e-07, 9.73802e-07, 0, 0
    17400, 3.64641e-07, 9.12439e-07, 0, 0
    17500, 3.6367e-07, 1.58743e-06, 0, 0
    17600, 3.62935e-07, 8.97158e-07, 0, 0
    17700, 3.62036e-07, 9.20661e-07, 0, 0
    17800, 3.61183e-07, 9.3449e-07, 0, 0
    17900, 3.60401e-07, 8.72739e-07, 0, 0
    18000, 3.59536e-07, 9.29667e-07, 0, 0
    18100, 3.58804e-07, 8.8106e-07, 0, 0
    18200, 3.5802e-07, 8.58446e-07, 0, 0
    18300, 3.57168e-07, 8.44279e-07, 0, 0
    18400, 3.56312e-07, 8.36114e-07, 0, 0
    18500, 3.55562e-07, 8.29755e-07, 0, 0
    18600, 3.54879e-07, 8.37844e-07, 0, 0
    18700, 3.54097e-07, 8.83472e-07, 0, 0
    18800, 3.53252e-07, 8.09669e-07, 0, 0
    18900, 3.52621e-07, 8.26879e-07, 0, 0
    19000, 3.51786e-07, 7.97471e-07, 0, 0
    19100, 3.51222e-07, 8.5901e-07, 0, 0
    19200, 3.50481e-07, 8.08314e-07, 0, 0
    19300, 3.49716e-07, 7.79442e-07, 0, 0
    19400, 3.49006e-07, 7.71993e-07, 0, 0
    19500, 3.48363e-07, 7.69532e-07, 0, 0
    19600, 3.47727e-07, 7.74637e-07, 0, 0
    19700, 3.47062e-07, 7.89442e-07, 0, 0
    19800, 3.46322e-07, 1.54879e-06, 0, 0
    19900, 3.45662e-07, 7.4383e-07, 0, 0
--> FOAM Warning : Max iterations reached within momentum loop
Max sigmaEq (von Mises stress) = 546160
ExecutionTime = 164.37 s  ClockTime = 165 s

Jacobian determinant max. 1.00179 min. 0.998937

Time = 9

Evolving solid solver
Solving the total Lagrangian form of the momentum equation for D
    Corr, res, relRes, matRes, iters
    100, 7.41017e-05, 0.00222955, 0, 0
    200, 1.84866e-05, 0.00078702, 0, 0
    300, 2.21341e-05, 0.00120784, 0, 0
    400, 2.27065e-05, 0.00134316, 0, 0
    500, 2.25669e-05, 0.00145859, 0, 0
    600, 2.22414e-05, 0.00159882, 0, 0
    700, 2.19186e-05, 0.00177561, 0, 0
    800, 2.17074e-05, 0.00199647, 0, 0
    900, 2.1581e-05, 0.00226703, 0, 0
    1000, 2.15441e-05, 0.00261326, 0, 0
    1100, 2.15083e-05, 0.00306999, 0, 0
    1200, 2.36512e-05, 0.00201273, 0, 0
    1300, 1.58746e-05, 0.00147839, 0, 0
    1400, 1.14284e-05, 0.000910143, 0, 0
    1500, 8.50561e-06, 0.000690984, 0, 0
    1600, 6.61986e-06, 0.000581071, 0, 0
    1700, 5.57284e-06, 0.000393718, 0, 0
    1800, 3.77522e-06, 0.000239485, 0, 0
    1900, 2.86972e-06, 0.00016558, 0, 0
    2000, 2.53673e-06, 0.000132732, 0, 0
    2100, 2.38209e-06, 0.000146337, 0, 0
    2200, 2.32323e-06, 0.000136583, 0, 0
    2300, 2.25933e-06, 0.00012856, 0, 0
    2400, 2.1241e-06, 0.000119458, 0, 0
    2500, 2.04709e-06, 0.000115668, 0, 0
    2600, 1.97142e-06, 9.47794e-05, 0, 0
    2700, 1.89494e-06, 0.000103169, 0, 0
    2800, 1.86462e-06, 9.40945e-05, 0, 0
    2900, 1.7905e-06, 8.95431e-05, 0, 0
    3000, 1.72895e-06, 8.54778e-05, 0, 0
    3100, 1.66846e-06, 8.14579e-05, 0, 0
    3200, 1.61089e-06, 7.73821e-05, 0, 0
    3300, 1.55518e-06, 7.38174e-05, 0, 0
    3400, 1.49828e-06, 7.0445e-05, 0, 0
    3500, 1.45398e-06, 6.71622e-05, 0, 0
    3600, 1.40203e-06, 6.40872e-05, 0, 0
    3700, 1.35607e-06, 6.12801e-05, 0, 0
    3800, 1.31258e-06, 5.85914e-05, 0, 0
    3900, 1.27106e-06, 5.60334e-05, 0, 0
    4000, 1.232e-06, 5.3596e-05, 0, 0
    4100, 1.19548e-06, 5.12847e-05, 0, 0
    4200, 1.16081e-06, 4.90855e-05, 0, 0
    4300, 1.12801e-06, 4.69872e-05, 0, 0
    4400, 1.09628e-06, 4.48173e-05, 0, 0
    4500, 1.06643e-06, 4.30609e-05, 0, 0
    4600, 1.03848e-06, 4.12809e-05, 0, 0
    4700, 1.01239e-06, 3.95576e-05, 0, 0
    4800, 9.8815e-07, 3.79173e-05, 0, 0
    4900, 9.65035e-07, 3.63474e-05, 0, 0
    5000, 9.42764e-07, 3.48537e-05, 0, 0
    5100, 9.21623e-07, 3.3425e-05, 0, 0
    5200, 9.01424e-07, 3.20614e-05, 0, 0
    5300, 8.82169e-07, 3.07587e-05, 0, 0
    5400, 8.64112e-07, 2.95137e-05, 0, 0
    5500, 8.47e-07, 2.83236e-05, 0, 0
    5600, 8.29755e-07, 2.7056e-05, 0, 0
    5700, 8.13854e-07, 2.59765e-05, 0, 0
    5800, 7.98883e-07, 2.4946e-05, 0, 0
    5900, 7.84695e-07, 2.396e-05, 0, 0
    6000, 7.71214e-07, 2.30164e-05, 0, 0
    6100, 7.58416e-07, 2.2113e-05, 0, 0
    6200, 7.46211e-07, 2.12479e-05, 0, 0
    6300, 7.3451e-07, 2.04193e-05, 0, 0
    6400, 7.23986e-07, 1.95179e-05, 0, 0
    6500, 7.1254e-07, 1.87972e-05, 0, 0
    6600, 7.01895e-07, 1.80705e-05, 0, 0
    6700, 6.91751e-07, 1.73726e-05, 0, 0
    6800, 6.82762e-07, 1.67956e-05, 0, 0
    6900, 6.75327e-07, 1.6159e-05, 0, 0
    7000, 6.6653e-07, 1.55392e-05, 0, 0
    7100, 6.57932e-07, 1.49456e-05, 0, 0
    7200, 6.49664e-07, 1.43982e-05, 0, 0
    7300, 6.41673e-07, 1.39105e-05, 0, 0
    7400, 6.3399e-07, 1.34379e-05, 0, 0
    7500, 6.26653e-07, 1.29799e-05, 0, 0
    7600, 6.19795e-07, 1.25363e-05, 0, 0
    7700, 6.13134e-07, 1.21067e-05, 0, 0
    7800, 6.06698e-07, 1.16907e-05, 0, 0
    7900, 6.0051e-07, 1.12881e-05, 0, 0
    8000, 5.94511e-07, 1.08983e-05, 0, 0
    8100, 5.8878e-07, 1.05353e-05, 0, 0
    8200, 5.83248e-07, 1.01911e-05, 0, 0
    8300, 5.77911e-07, 9.86028e-06, 0, 0
    8400, 5.72862e-07, 9.50761e-06, 0, 0
    8500, 5.68097e-07, 9.20154e-06, 0, 0
    8600, 5.63369e-07, 8.90894e-06, 0, 0
    8700, 5.58728e-07, 8.6263e-06, 0, 0
    8800, 5.54196e-07, 8.3576e-06, 0, 0
    8900, 5.49789e-07, 8.09919e-06, 0, 0
    9000, 5.45415e-07, 7.74109e-06, 0, 0
    9100, 5.42558e-07, 7.55828e-06, 0, 0
    9200, 5.38992e-07, 7.34322e-06, 0, 0
    9300, 5.35332e-07, 7.12348e-06, 0, 0
    9400, 5.31707e-07, 6.91386e-06, 0, 0
    9500, 5.28131e-07, 6.70996e-06, 0, 0
    9600, 5.24584e-07, 6.51607e-06, 0, 0
    9700, 5.21084e-07, 6.32944e-06, 0, 0
    9800, 5.1764e-07, 6.1476e-06, 0, 0
    9900, 5.1424e-07, 5.97483e-06, 0, 0
    10000, 5.10898e-07, 5.80847e-06, 0, 0
    10100, 5.07624e-07, 5.64631e-06, 0, 0
    10200, 5.04387e-07, 5.49228e-06, 0, 0
    10300, 5.0086e-07, 5.39728e-06, 0, 0
    10400, 4.9678e-07, 5.08568e-06, 0, 0
    10500, 4.93411e-07, 4.96255e-06, 0, 0
    10600, 4.90164e-07, 4.84281e-06, 0, 0
    10700, 4.87034e-07, 4.72363e-06, 0, 0
    10800, 4.83657e-07, 4.58152e-06, 0, 0
    10900, 4.8086e-07, 4.45824e-06, 0, 0
    11000, 4.77651e-07, 4.32875e-06, 0, 0
    11100, 4.74589e-07, 4.24906e-06, 0, 0
    11200, 4.71629e-07, 4.1555e-06, 0, 0
    11300, 4.68756e-07, 4.06864e-06, 0, 0
    11400, 4.65994e-07, 3.98133e-06, 0, 0
    11500, 4.63306e-07, 3.8973e-06, 0, 0
    11600, 4.61492e-07, 3.83446e-06, 0, 0
    11700, 4.58685e-07, 3.58433e-06, 0, 0
    11800, 4.56456e-07, 3.53003e-06, 0, 0
    11900, 4.54534e-07, 3.42599e-06, 0, 0
    12000, 4.50918e-07, 3.37857e-06, 0, 0
    12100, 4.49669e-07, 3.27825e-06, 0, 0
    12200, 4.45606e-07, 3.22592e-06, 0, 0
    12300, 4.43231e-07, 3.15592e-06, 0, 0
    12400, 4.42233e-07, 3.08687e-06, 0, 0
    12500, 4.39396e-07, 3.06571e-06, 0, 0
    12600, 4.38277e-07, 3.01802e-06, 0, 0
    12700, 4.37148e-07, 2.65669e-06, 0, 0
    12800, 4.34584e-07, 2.63901e-06, 0, 0
    12900, 4.32004e-07, 2.90183e-06, 0, 0
    13000, 4.30362e-07, 2.86376e-06, 0, 0
    13100, 4.28983e-07, 2.68272e-06, 0, 0
    13200, 4.27556e-07, 2.35208e-06, 0, 0
    13300, 4.27281e-07, 2.3165e-06, 0, 0
    13400, 4.23337e-07, 2.4217e-06, 0, 0
    13500, 4.21976e-07, 2.43286e-06, 0, 0
    13600, 4.20822e-07, 2.59424e-06, 0, 0
    13700, 4.21378e-07, 2.22905e-06, 0, 0
    13800, 4.18342e-07, 2.62967e-06, 0, 0
    13900, 4.18172e-07, 2.07402e-06, 0, 0
    14000, 4.16059e-07, 1.8447e-06, 0, 0
    14100, 4.15137e-07, 2.09965e-06, 0, 0
    14200, 4.13852e-07, 1.83781e-06, 0, 0
    14300, 4.12883e-07, 1.80087e-06, 0, 0
    14400, 4.1184e-07, 1.79368e-06, 0, 0
    14500, 4.10678e-07, 1.77833e-06, 0, 0
    14600, 4.0893e-07, 2.70996e-06, 0, 0
    14700, 4.08449e-07, 1.75273e-06, 0, 0
    14800, 4.07563e-07, 1.74607e-06, 0, 0
    14900, 4.06328e-07, 1.71305e-06, 0, 0
    15000, 4.05661e-07, 1.7094e-06, 0, 0
    15100, 4.04337e-07, 1.70992e-06, 0, 0
    15200, 4.03086e-07, 1.66056e-06, 0, 0
    15300, 4.04232e-07, 1.87558e-06, 0, 0
    15400, 4.01435e-07, 1.66026e-06, 0, 0
    15500, 4.00201e-07, 1.64314e-06, 0, 0
    15600, 3.99144e-07, 1.62452e-06, 0, 0
    15700, 3.98245e-07, 1.5929e-06, 0, 0
    15800, 3.97716e-07, 1.63112e-06, 0, 0
    15900, 3.9595e-07, 2.42163e-06, 0, 0
    16000, 3.95511e-07, 1.60634e-06, 0, 0
    16100, 3.94335e-07, 1.58306e-06, 0, 0
    16200, 3.9337e-07, 1.56992e-06, 0, 0
    16300, 3.92091e-07, 2.85037e-06, 0, 0
    16400, 3.91834e-07, 1.51328e-06, 0, 0
    16500, 3.90875e-07, 1.54109e-06, 0, 0
    16600, 3.89838e-07, 1.53103e-06, 0, 0
    16700, 3.88883e-07, 1.4952e-06, 0, 0
    16800, 3.87973e-07, 1.47901e-06, 0, 0
    16900, 3.8707e-07, 1.4675e-06, 0, 0
    17000, 3.86374e-07, 1.49246e-06, 0, 0
    17100, 3.85204e-07, 1.469e-06, 0, 0
    17200, 3.84457e-07, 1.45176e-06, 0, 0
    17300, 3.83581e-07, 1.43658e-06, 0, 0
    17400, 3.82971e-07, 1.43762e-06, 0, 0
    17500, 3.81955e-07, 1.39157e-06, 0, 0
    17600, 3.81126e-07, 1.40871e-06, 0, 0
    17700, 3.80523e-07, 1.3974e-06, 0, 0
    17800, 3.79438e-07, 1.37026e-06, 0, 0
    17900, 3.78684e-07, 1.37296e-06, 0, 0
    18000, 3.77944e-07, 1.34311e-06, 0, 0
    18100, 3.77203e-07, 1.33354e-06, 0, 0
    18200, 3.76437e-07, 1.3272e-06, 0, 0
    18300, 3.75672e-07, 1.31825e-06, 0, 0
    18400, 3.74918e-07, 1.30806e-06, 0, 0
    18500, 3.74165e-07, 1.29629e-06, 0, 0
    18600, 3.73447e-07, 1.30273e-06, 0, 0
    18700, 3.72822e-07, 1.31165e-06, 0, 0
    18800, 3.71979e-07, 1.27053e-06, 0, 0
    18900, 3.71334e-07, 1.30299e-06, 0, 0
    19000, 3.70564e-07, 1.25325e-06, 0, 0
    19100, 3.69956e-07, 1.34193e-06, 0, 0
    19200, 3.6923e-07, 1.26504e-06, 0, 0
    19300, 3.68414e-07, 1.23015e-06, 0, 0
    19400, 3.67858e-07, 1.3244e-06, 0, 0
    19500, 3.67113e-07, 1.21421e-06, 0, 0
    19600, 3.66565e-07, 1.23446e-06, 0, 0
    19700, 3.65827e-07, 1.19822e-06, 0, 0
    19800, 3.65213e-07, 1.19304e-06, 0, 0
    19900, 3.64567e-07, 1.18546e-06, 0, 0
[...]
    14100, 2.75181e-07, 9.53986e-07, 0, 0
    14200, 2.74543e-07, 9.43913e-07, 0, 0
    14300, 2.73847e-07, 9.33232e-07, 0, 0
    14400, 2.73192e-07, 9.22852e-07, 0, 0
    14500, 2.72665e-07, 9.1407e-07, 0, 0
    14600, 2.71913e-07, 9.02208e-07, 0, 0
    14700, 2.71296e-07, 8.90987e-07, 0, 0
    14800, 2.7067e-07, 8.81821e-07, 0, 0
    14900, 2.70066e-07, 8.72956e-07, 0, 0
    15000, 2.69454e-07, 8.61371e-07, 0, 0
    15100, 2.68905e-07, 8.57662e-07, 0, 0
    15200, 2.68263e-07, 8.4215e-07, 0, 0
    15300, 2.67661e-07, 8.34239e-07, 0, 0
    15400, 2.67084e-07, 8.23932e-07, 0, 0
    15500, 2.66493e-07, 8.16134e-07, 0, 0
    15600, 2.65922e-07, 8.05891e-07, 0, 0
    15700, 2.65339e-07, 7.99473e-07, 0, 0
    15800, 2.64779e-07, 7.88582e-07, 0, 0
    15900, 2.64212e-07, 7.82171e-07, 0, 0
    16000, 2.63653e-07, 7.71233e-07, 0, 0
    16100, 2.63103e-07, 7.62699e-07, 0, 0
    16200, 2.62557e-07, 7.54413e-07, 0, 0
    16300, 2.62018e-07, 7.46319e-07, 0, 0
    16400, 2.61485e-07, 7.38362e-07, 0, 0
    16500, 2.60959e-07, 7.30527e-07, 0, 0
    16600, 2.60442e-07, 7.22805e-07, 0, 0
    16700, 2.59929e-07, 7.1519e-07, 0, 0
    16800, 2.59419e-07, 7.07676e-07, 0, 0
    16900, 2.58914e-07, 7.0026e-07, 0, 0
    17000, 2.58411e-07, 6.92941e-07, 0, 0
    17100, 2.57913e-07, 6.85715e-07, 0, 0
    17200, 2.57418e-07, 6.78582e-07, 0, 0
    17300, 2.56926e-07, 6.71539e-07, 0, 0
    17400, 2.56438e-07, 6.64586e-07, 0, 0
    17500, 2.55953e-07, 6.57719e-07, 0, 0
    17600, 2.55475e-07, 6.50939e-07, 0, 0
    17700, 2.55003e-07, 6.44244e-07, 0, 0
    17800, 2.54535e-07, 6.37632e-07, 0, 0
    17900, 2.54069e-07, 6.34608e-07, 0, 0
    18000, 2.5361e-07, 6.34465e-07, 0, 0
    18100, 2.53156e-07, 6.34325e-07, 0, 0
    18200, 2.52705e-07, 6.34187e-07, 0, 0
    18300, 2.52257e-07, 6.34051e-07, 0, 0
    18400, 2.51811e-07, 6.33918e-07, 0, 0
    18500, 2.5137e-07, 6.33787e-07, 0, 0
    18600, 2.50932e-07, 6.33658e-07, 0, 0
    18700, 2.50498e-07, 6.33531e-07, 0, 0
    18800, 2.5007e-07, 6.33406e-07, 0, 0
    18900, 2.49648e-07, 6.33283e-07, 0, 0
    19000, 2.49228e-07, 6.33161e-07, 0, 0
    19100, 2.48812e-07, 6.33042e-07, 0, 0
    19200, 2.48402e-07, 6.32924e-07, 0, 0
    19300, 2.47996e-07, 6.32807e-07, 0, 0
    19400, 2.47595e-07, 6.32692e-07, 0, 0
    19500, 2.47199e-07, 6.32578e-07, 0, 0
    19600, 2.46805e-07, 6.32466e-07, 0, 0
    19700, 2.46414e-07, 6.32355e-07, 0, 0
    19800, 2.46026e-07, 6.32245e-07, 0, 0
    19900, 2.45641e-07, 6.32136e-07, 0, 0
--> FOAM Warning : Max iterations reached within momentum loop
Max sigmaEq (von Mises stress) = 3.6802e+06
ExecutionTime = 589.05 s  ClockTime = 590 s

Jacobian determinant max. 1.00302 min. 0.99568

Time = 29

Evolving solid solver
Solving the total Lagrangian form of the momentum equation for D
    Corr, res, relRes, matRes, iters
    100, 2.21208e-05, 0.00152339, 0, 0
    200, 1.38138e-05, 0.00226888, 0, 0
    300, 1.61853e-05, 0.00351612, 0, 0
    400, 3.42329e-05, 0.00260913, 0, 0
    500, 2.90606e-05, 0.00193313, 0, 0
    600, 2.00104e-05, 0.00143257, 0, 0
    700, 1.44459e-05, 0.00122357, 0, 0
    800, 9.57759e-06, 0.000916083, 0, 0
    900, 7.57304e-06, 0.000597891, 0, 0
    1000, 5.38951e-06, 0.00050762, 0, 0
    1100, 3.70525e-06, 0.000285769, 0, 0
    1200, 2.07585e-06, 8.93088e-05, 0, 0
    1300, 1.00469e-06, 6.63373e-05, 0, 0
    1400, 8.32266e-07, 5.59595e-05, 0, 0
    1500, 7.89438e-07, 4.911e-05, 0, 0
    1600, 7.71546e-07, 4.46843e-05, 0, 0
    1700, 7.61614e-07, 4.27374e-05, 0, 0
    1800, 7.4881e-07, 3.98868e-05, 0, 0
    1900, 7.34817e-07, 3.75054e-05, 0, 0
    2000, 7.20685e-07, 3.53501e-05, 0, 0
    2100, 7.07482e-07, 3.29939e-05, 0, 0
    2200, 6.91649e-07, 3.11533e-05, 0, 0
    2300, 6.80102e-07, 2.85555e-05, 0, 0
    2400, 6.67891e-07, 2.83047e-05, 0, 0
    2500, 6.55744e-07, 2.69166e-05, 0, 0
    2600, 6.44168e-07, 2.55963e-05, 0, 0
    2700, 6.32748e-07, 2.44098e-05, 0, 0
    2800, 6.21846e-07, 2.31926e-05, 0, 0
    2900, 6.1271e-07, 2.19501e-05, 0, 0
    3000, 6.02888e-07, 2.08789e-05, 0, 0
    3100, 5.93711e-07, 2.00396e-05, 0, 0
    3200, 5.84972e-07, 1.91972e-05, 0, 0
    3300, 5.77199e-07, 1.84173e-05, 0, 0
    3400, 5.69528e-07, 1.78986e-05, 0, 0
    3500, 5.63226e-07, 1.69543e-05, 0, 0
    3600, 5.55545e-07, 1.62819e-05, 0, 0
    3700, 5.46939e-07, 1.6219e-05, 0, 0
    3800, 5.41647e-07, 1.56527e-05, 0, 0
    3900, 5.35023e-07, 1.50153e-05, 0, 0
    4000, 5.28949e-07, 1.44874e-05, 0, 0
    4100, 5.22919e-07, 1.38815e-05, 0, 0
    4200, 5.17016e-07, 1.34911e-05, 0, 0
    4300, 5.11239e-07, 1.30527e-05, 0, 0
    4400, 5.05635e-07, 1.26367e-05, 0, 0
    4500, 5.00204e-07, 1.22412e-05, 0, 0
    4600, 4.94928e-07, 1.18641e-05, 0, 0
    4700, 4.89829e-07, 1.15042e-05, 0, 0
    4800, 4.85e-07, 1.11602e-05, 0, 0
    4900, 4.80318e-07, 1.0831e-05, 0, 0
    5000, 4.75701e-07, 1.06305e-05, 0, 0
    5100, 4.72639e-07, 1.01081e-05, 0, 0
    5200, 4.69054e-07, 9.82505e-06, 0, 0
    5300, 4.65264e-07, 9.55652e-06, 0, 0
    5400, 4.61423e-07, 9.29572e-06, 0, 0
    5500, 4.57606e-07, 9.04193e-06, 0, 0
    5600, 4.53856e-07, 8.79649e-06, 0, 0
    5700, 4.50157e-07, 8.55969e-06, 0, 0
    5800, 4.46512e-07, 8.33144e-06, 0, 0
    5900, 4.42925e-07, 8.11479e-06, 0, 0
    6000, 4.39313e-07, 7.95142e-06, 0, 0
    6100, 4.35365e-07, 7.77037e-06, 0, 0
    6200, 4.322e-07, 7.63521e-06, 0, 0
    6300, 4.28935e-07, 7.62009e-06, 0, 0
    6400, 4.25723e-07, 5.85317e-06, 0, 0
    6500, 4.22527e-07, 7.13403e-06, 0, 0
    6600, 4.19514e-07, 6.95544e-06, 0, 0
    6700, 4.17094e-07, 7.1873e-06, 0, 0
    6800, 4.13598e-07, 6.82542e-06, 0, 0
    6900, 4.11037e-07, 6.90745e-06, 0, 0
    7000, 4.0801e-07, 6.61553e-06, 0, 0
    7100, 4.04968e-07, 4.52019e-06, 0, 0
    7200, 4.02605e-07, 6.53575e-06, 0, 0
    7300, 3.99374e-07, 4.2031e-06, 0, 0
    7400, 3.95809e-07, 4.52714e-06, 0, 0
    7500, 3.8505e-07, 4.0798e-06, 0, 0
    7600, 3.75091e-07, 4.02242e-06, 0, 0
    7700, 3.68013e-07, 3.92547e-06, 0, 0
    7800, 3.62446e-07, 3.55292e-06, 0, 0
    7900, 3.55746e-07, 3.62818e-06, 0, 0
    8000, 3.50548e-07, 3.61317e-06, 0, 0
    8100, 3.45736e-07, 3.53552e-06, 0, 0
    8200, 3.41345e-07, 3.40576e-06, 0, 0
    8300, 3.37742e-07, 3.1977e-06, 0, 0
    8400, 3.3465e-07, 3.03845e-06, 0, 0
    8500, 3.30763e-07, 3.00799e-06, 0, 0
    8600, 3.27836e-07, 2.95735e-06, 0, 0
    8700, 3.24555e-07, 2.95601e-06, 0, 0
    8800, 3.22709e-07, 2.68321e-06, 0, 0
    8900, 3.19756e-07, 2.6749e-06, 0, 0
    9000, 3.17226e-07, 2.64357e-06, 0, 0
    9100, 3.14834e-07, 2.5114e-06, 0, 0
    9200, 3.12357e-07, 2.53096e-06, 0, 0
    9300, 3.10445e-07, 2.38418e-06, 0, 0
    9400, 3.08364e-07, 2.35188e-06, 0, 0
    9500, 3.06197e-07, 2.27771e-06, 0, 0
    9600, 3.04816e-07, 1.92752e-06, 0, 0
    9700, 3.02452e-07, 2.06126e-06, 0, 0
    9800, 3.01219e-07, 1.92648e-06, 0, 0
    9900, 2.98924e-07, 1.94188e-06, 0, 0
    10000, 2.9746e-07, 1.82682e-06, 0, 0
    10100, 2.96344e-07, 1.7317e-06, 0, 0
    10200, 2.94252e-07, 1.78511e-06, 0, 0
    10300, 2.92987e-07, 1.68009e-06, 0, 0
    10400, 2.92166e-07, 1.56596e-06, 0, 0
    10500, 2.90201e-07, 1.63829e-06, 0, 0
    10600, 2.89538e-07, 1.40855e-06, 0, 0
    10700, 2.87358e-07, 1.59633e-06, 0, 0
    10800, 2.86398e-07, 1.46634e-06, 0, 0
    10900, 2.85012e-07, 1.62185e-06, 0, 0
    11000, 2.84447e-07, 1.27827e-06, 0, 0
    11100, 2.83366e-07, 1.25619e-06, 0, 0
    11200, 2.81718e-07, 1.21597e-06, 0, 0
    11300, 2.80771e-07, 1.18663e-06, 0, 0
    11400, 2.7932e-07, 1.49925e-06, 0, 0
    11500, 2.78284e-07, 1.17528e-06, 0, 0
    11600, 2.77619e-07, 1.24567e-06, 0, 0
    11700, 2.76415e-07, 9.85198e-07, 0, 0
    11800, 2.75456e-07, 9.63088e-07, 0, 0
    11900, 2.74477e-07, 9.46807e-07, 0, 0
    12000, 2.7353e-07, 1.07691e-06, 0, 0
    12100, 2.72583e-07, 9.13737e-07, 0, 0
    12200, 2.71749e-07, 9.12561e-07, 0, 0
    12300, 2.70838e-07, 8.99208e-07, 0, 0
    12400, 2.69956e-07, 8.85313e-07, 0, 0
    12500, 2.69101e-07, 8.71494e-07, 0, 0
    12600, 2.68275e-07, 8.57902e-07, 0, 0
    12700, 2.67473e-07, 8.44573e-07, 0, 0
    12800, 2.66647e-07, 8.25676e-07, 0, 0
    12900, 2.65865e-07, 8.12811e-07, 0, 0
    13000, 2.65123e-07, 8.07259e-07, 0, 0
    13100, 2.64379e-07, 1.14134e-06, 0, 0
    13200, 2.63644e-07, 7.8374e-07, 0, 0
    13300, 2.62931e-07, 7.68406e-07, 0, 0
    13400, 2.62188e-07, 7.48727e-07, 0, 0
    13500, 2.61522e-07, 7.473e-07, 0, 0
    13600, 2.60838e-07, 1.09518e-06, 0, 0
    13700, 2.60167e-07, 7.11105e-07, 0, 0
    13800, 2.59506e-07, 1.08571e-06, 0, 0
    13900, 2.58834e-07, 7.05256e-07, 0, 0
    14000, 2.58162e-07, 6.85873e-07, 0, 0
    14100, 2.57543e-07, 1.06091e-06, 0, 0
    14200, 2.56878e-07, 6.65969e-07, 0, 0
    14300, 2.56238e-07, 6.57773e-07, 0, 0
    14400, 2.55682e-07, 6.52066e-07, 0, 0
    14500, 2.55012e-07, 6.39313e-07, 0, 0
    14600, 2.54425e-07, 6.35349e-07, 0, 0
    14700, 2.53815e-07, 6.1731e-07, 0, 0
    14800, 2.5322e-07, 6.09203e-07, 0, 0
    14900, 2.52737e-07, 6.07996e-07, 0, 0
    15000, 2.52189e-07, 6.07039e-07, 0, 0
    15100, 2.51495e-07, 5.84759e-07, 0, 0
    15200, 2.50952e-07, 5.82683e-07, 0, 0
    15300, 2.50388e-07, 5.76222e-07, 0, 0
    15400, 2.49959e-07, 5.78828e-07, 0, 0
    15500, 2.49417e-07, 5.7538e-07, 0, 0
    15600, 2.48794e-07, 5.76367e-07, 0, 0
    15700, 2.48277e-07, 5.76122e-07, 0, 0
    15800, 2.47748e-07, 5.76484e-07, 0, 0
    15900, 2.47253e-07, 5.75846e-07, 0, 0
    16000, 2.46744e-07, 5.75977e-07, 0, 0
    16100, 2.46272e-07, 5.75981e-07, 0, 0
    16200, 2.45767e-07, 5.76316e-07, 0, 0
    16300, 2.4531e-07, 5.7605e-07, 0, 0
    16400, 2.44821e-07, 5.76814e-07, 0, 0
    16500, 2.44366e-07, 5.76864e-07, 0, 0
    16600, 2.43914e-07, 9.69133e-07, 0, 0
    16700, 2.43468e-07, 5.76948e-07, 0, 0
    16800, 2.43032e-07, 5.76924e-07, 0, 0
    16900, 2.42588e-07, 5.77211e-07, 0, 0
    17000, 2.42152e-07, 5.77387e-07, 0, 0
    17100, 2.41724e-07, 5.77429e-07, 0, 0
    17200, 2.41298e-07, 5.77504e-07, 0, 0
    17300, 2.40877e-07, 5.77579e-07, 0, 0
    17400, 2.40459e-07, 5.77644e-07, 0, 0
    17500, 2.40044e-07, 5.77703e-07, 0, 0
    17600, 2.39633e-07, 5.77759e-07, 0, 0
    17700, 2.39225e-07, 5.77811e-07, 0, 0
    17800, 2.38819e-07, 5.77862e-07, 0, 0
    17900, 2.38415e-07, 5.77911e-07, 0, 0
    18000, 2.38018e-07, 5.77958e-07, 0, 0
    18100, 2.37623e-07, 5.78004e-07, 0, 0
    18200, 2.3723e-07, 5.7805e-07, 0, 0
    18300, 2.36839e-07, 5.78094e-07, 0, 0
    18400, 2.36452e-07, 5.78137e-07, 0, 0
    18500, 2.36068e-07, 5.7818e-07, 0, 0
    18600, 2.35687e-07, 5.78222e-07, 0, 0
    18700, 2.35309e-07, 5.78263e-07, 0, 0
    18800, 2.34934e-07, 5.78303e-07, 0, 0
    18900, 2.3456e-07, 5.78343e-07, 0, 0
    19000, 2.34192e-07, 5.78383e-07, 0, 0
    19100, 2.33826e-07, 5.78422e-07, 0, 0
    19200, 2.33469e-07, 5.7846e-07, 0, 0
    19300, 2.33116e-07, 5.78498e-07, 0, 0
    19400, 2.32766e-07, 5.78535e-07, 0, 0
    19500, 2.32424e-07, 5.78572e-07, 0, 0
    19600, 2.32088e-07, 5.78608e-07, 0, 0
    19700, 2.31752e-07, 5.78644e-07, 0, 0
    19800, 2.31419e-07, 5.7868e-07, 0, 0
    19900, 2.31086e-07, 5.78714e-07, 0, 0
--> FOAM Warning : Max iterations reached within momentum loop
Max sigmaEq (von Mises stress) = 3.97431e+06
ExecutionTime = 608.77 s  ClockTime = 610 s

Jacobian determinant max. 1.00447 min. 0.995296

Time = 30

Evolving solid solver
Solving the total Lagrangian form of the momentum equation for D
    Corr, res, relRes, matRes, iters
    100, 2.17346e-05, 0.00149007, 0, 0
    200, 1.46317e-05, 0.00228183, 0, 0
    300, 1.60329e-05, 0.00369595, 0, 0
    400, 2.695e-05, 0.00264719, 0, 0
    500, 2.5972e-05, 0.00199831, 0, 0
    600, 1.95337e-05, 0.00146757, 0, 0
    700, 1.30326e-05, 0.00118078, 0, 0
    800, 9.77048e-06, 0.000907193, 0, 0
    900, 7.29865e-06, 0.000575675, 0, 0
    1000, 5.62428e-06, 0.000452665, 0, 0
    1100, 4.01956e-06, 0.000325288, 0, 0
    1200, 3.00404e-06, 0.000200766, 0, 0
    1300, 1.7539e-06, 0.000117413, 0, 0
    1400, 8.74198e-07, 3.73997e-05, 0, 0
    1500, 6.71379e-07, 3.22764e-05, 0, 0
    1600, 6.12733e-07, 3.23201e-05, 0, 0
    1700, 5.79916e-07, 3.11403e-05, 0, 0
    1800, 5.56559e-07, 2.82748e-05, 0, 0
    1900, 5.35662e-07, 2.72405e-05, 0, 0
    2000, 5.16347e-07, 2.77404e-05, 0, 0
    2100, 4.98954e-07, 2.68632e-05, 0, 0
    2200, 4.83309e-07, 2.59688e-05, 0, 0
    2300, 4.68054e-07, 2.51865e-05, 0, 0
    2400, 4.53018e-07, 2.45232e-05, 0, 0
    2500, 4.4249e-07, 2.37247e-05, 0, 0
    2600, 4.32023e-07, 2.29691e-05, 0, 0
    2700, 4.2227e-07, 2.22949e-05, 0, 0
    2800, 4.13999e-07, 2.0587e-05, 0, 0
    2900, 4.06109e-07, 2.00405e-05, 0, 0
    3000, 3.98883e-07, 1.9438e-05, 0, 0
    3100, 3.92212e-07, 1.89074e-05, 0, 0
    3200, 3.85644e-07, 1.82976e-05, 0, 0
    3300, 3.7948e-07, 1.77062e-05, 0, 0
    3400, 3.74217e-07, 1.71317e-05, 0, 0
    3500, 3.69393e-07, 1.65744e-05, 0, 0
    3600, 3.64832e-07, 1.60333e-05, 0, 0
    3700, 3.60533e-07, 1.55085e-05, 0, 0
    3800, 3.56704e-07, 1.49996e-05, 0, 0
    3900, 3.53343e-07, 1.45758e-05, 0, 0
    4000, 3.50764e-07, 1.38489e-05, 0, 0
    4100, 3.47405e-07, 1.37641e-05, 0, 0
    4200, 3.42379e-07, 1.30801e-05, 0, 0
    4300, 3.39566e-07, 1.26751e-05, 0, 0
    4400, 3.36783e-07, 1.22548e-05, 0, 0
    4500, 3.34172e-07, 1.18484e-05, 0, 0
    4600, 3.31676e-07, 1.14554e-05, 0, 0
    4700, 3.29246e-07, 1.10756e-05, 0, 0
    4800, 3.26928e-07, 1.07072e-05, 0, 0
    4900, 3.24681e-07, 1.03515e-05, 0, 0
    5000, 3.2252e-07, 1.00075e-05, 0, 0
    5100, 3.2046e-07, 9.67472e-06, 0, 0
    5200, 3.18492e-07, 9.35097e-06, 0, 0
    5300, 3.1654e-07, 9.03919e-06, 0, 0
    5400, 3.1475e-07, 8.73713e-06, 0, 0
    5500, 3.13067e-07, 8.44455e-06, 0, 0
    5600, 3.11389e-07, 8.22373e-06, 0, 0
    5700, 3.10043e-07, 7.88376e-06, 0, 0
    5800, 3.08609e-07, 7.63555e-06, 0, 0
    5900, 3.07196e-07, 7.37997e-06, 0, 0
    6000, 3.07599e-07, 7.07913e-06, 0, 0
    6100, 3.06082e-07, 6.85434e-06, 0, 0
    6200, 3.04679e-07, 6.62709e-06, 0, 0
    6300, 3.0334e-07, 6.40451e-06, 0, 0
    6400, 3.02033e-07, 6.18838e-06, 0, 0
    6500, 3.00768e-07, 5.97899e-06, 0, 0
    6600, 2.99544e-07, 5.77625e-06, 0, 0
    6700, 2.98348e-07, 5.58002e-06, 0, 0
    6800, 2.97178e-07, 5.39014e-06, 0, 0
    6900, 2.96026e-07, 5.20644e-06, 0, 0
    7000, 2.94896e-07, 5.02873e-06, 0, 0
    7100, 2.93789e-07, 4.85986e-06, 0, 0
    7200, 2.92696e-07, 4.69956e-06, 0, 0
    7300, 2.91618e-07, 4.54445e-06, 0, 0
    7400, 2.90554e-07, 4.39436e-06, 0, 0
    7500, 2.90165e-07, 4.28064e-06, 0, 0
    7600, 2.88228e-07, 4.05693e-06, 0, 0
    7700, 2.88213e-07, 4.04531e-06, 0, 0
    7800, 2.86412e-07, 3.92124e-06, 0, 0
    7900, 2.85497e-07, 3.84271e-06, 0, 0
    8000, 2.84529e-07, 3.75857e-06, 0, 0
    8100, 2.83505e-07, 3.70847e-06, 0, 0
    8200, 2.82711e-07, 3.2553e-06, 0, 0
    8300, 2.82271e-07, 3.63211e-06, 0, 0
    8400, 2.81248e-07, 3.61288e-06, 0, 0
    8500, 2.80699e-07, 3.46671e-06, 0, 0
    8600, 2.80044e-07, 3.56224e-06, 0, 0
    8700, 2.79585e-07, 3.5084e-06, 0, 0
    8800, 2.78835e-07, 3.47932e-06, 0, 0
    8900, 2.78144e-07, 3.41987e-06, 0, 0
    9000, 2.77464e-07, 3.35771e-06, 0, 0
    9100, 2.76798e-07, 3.29695e-06, 0, 0
    9200, 2.76135e-07, 3.26714e-06, 0, 0
    9300, 2.74985e-07, 2.19628e-06, 0, 0
    9400, 2.74666e-07, 2.14871e-06, 0, 0
    9500, 2.73852e-07, 3.17316e-06, 0, 0
    9600, 2.73835e-07, 3.26793e-06, 0, 0
    9700, 2.72213e-07, 1.92859e-06, 0, 0
    9800, 2.71765e-07, 1.86176e-06, 0, 0
    9900, 2.71384e-07, 1.73179e-06, 0, 0
    10000, 2.7115e-07, 1.72829e-06, 0, 0
    10100, 2.70057e-07, 1.69272e-06, 0, 0
    10200, 2.6931e-07, 1.66066e-06, 0, 0
    10300, 2.69326e-07, 1.6735e-06, 0, 0
    10400, 2.68974e-07, 1.63133e-06, 0, 0
    10500, 2.68087e-07, 1.63207e-06, 0, 0
    10600, 2.67097e-07, 1.55864e-06, 0, 0
    10700, 2.67543e-07, 1.55911e-06, 0, 0
    10800, 2.67129e-07, 1.52568e-06, 0, 0
    10900, 2.6678e-07, 2.75512e-06, 0, 0
    11000, 2.65301e-07, 1.44933e-06, 0, 0
    11100, 2.64587e-07, 1.45558e-06, 0, 0
    11200, 2.65064e-07, 2.71659e-06, 0, 0
    11300, 2.64589e-07, 1.41157e-06, 0, 0
    11400, 2.63356e-07, 1.36772e-06, 0, 0
    11500, 2.6347e-07, 2.62397e-06, 0, 0
    11600, 2.63235e-07, 1.34256e-06, 0, 0
    11700, 2.61884e-07, 1.29642e-06, 0, 0
    11800, 2.62351e-07, 2.42376e-06, 0, 0
    11900, 2.60675e-07, 1.30113e-06, 0, 0
    12000, 2.60072e-07, 1.29529e-06, 0, 0
    12100, 2.5966e-07, 1.31031e-06, 0, 0
    12200, 2.59075e-07, 1.26826e-06, 0, 0
    12300, 2.58816e-07, 1.15228e-06, 0, 0
    12400, 2.58289e-07, 1.14357e-06, 0, 0
    12500, 2.58344e-07, 1.24659e-06, 0, 0
    12600, 2.57443e-07, 1.11751e-06, 0, 0
    12700, 2.5694e-07, 1.19471e-06, 0, 0
    12800, 2.56728e-07, 1.10015e-06, 0, 0
    12900, 2.56353e-07, 1.09061e-06, 0, 0
    13000, 2.55799e-07, 1.17127e-06, 0, 0
    13100, 2.55365e-07, 1.14889e-06, 0, 0
    13200, 2.54997e-07, 1.04651e-06, 0, 0
    13300, 2.54579e-07, 1.11239e-06, 0, 0
    13400, 2.54201e-07, 1.10294e-06, 0, 0
    13500, 2.53831e-07, 1.01122e-06, 0, 0
    13600, 2.53576e-07, 1.00624e-06, 0, 0
    13700, 2.5309e-07, 9.87644e-07, 0, 0
    13800, 2.52693e-07, 1.04708e-06, 0, 0
    13900, 2.52329e-07, 9.62266e-07, 0, 0
    14000, 2.52057e-07, 9.5804e-07, 0, 0
    14100, 2.51733e-07, 9.51739e-07, 0, 0
    14200, 2.51398e-07, 9.4029e-07, 0, 0
    14300, 2.5104e-07, 9.30788e-07, 0, 0
    14400, 2.50598e-07, 9.09982e-07, 0, 0
    14500, 2.50318e-07, 9.0626e-07, 0, 0
    14600, 2.50019e-07, 9.00886e-07, 0, 0
    14700, 2.49599e-07, 8.82266e-07, 0, 0
    14800, 2.49307e-07, 8.78069e-07, 0, 0
    14900, 2.49014e-07, 8.72799e-07, 0, 0
    15000, 2.48622e-07, 8.60486e-07, 0, 0
    15100, 2.48317e-07, 8.54399e-07, 0, 0
    15200, 2.48035e-07, 8.49054e-07, 0, 0
    15300, 2.47649e-07, 8.71427e-07, 0, 0
    15400, 2.47406e-07, 8.33668e-07, 0, 0
    15500, 2.47008e-07, 8.21333e-07, 0, 0
    15600, 2.46704e-07, 8.39622e-07, 0, 0
    15700, 2.46438e-07, 8.12747e-07, 0, 0
    15800, 2.46077e-07, 8.21574e-07, 0, 0
    15900, 2.45769e-07, 7.93896e-07, 0, 0
    16000, 2.45468e-07, 7.84613e-07, 0, 0
    16100, 2.45232e-07, 7.84719e-07, 0, 0
    16200, 2.44918e-07, 7.75536e-07, 0, 0
    16300, 2.44594e-07, 7.65861e-07, 0, 0
    16400, 2.44315e-07, 7.71493e-07, 0, 0
    16500, 2.44081e-07, 7.57987e-07, 0, 0
    16600, 2.43789e-07, 7.52112e-07, 0, 0
    16700, 2.43456e-07, 7.39901e-07, 0, 0
    16800, 2.43222e-07, 7.39474e-07, 0, 0
    16900, 2.42935e-07, 7.30565e-07, 0, 0
    17000, 2.42624e-07, 7.21191e-07, 0, 0
    17100, 2.42357e-07, 7.19495e-07, 0, 0
    17200, 2.42089e-07, 7.10548e-07, 0, 0
    17300, 2.41798e-07, 7.03793e-07, 0, 0
    17400, 2.41586e-07, 7.03567e-07, 0, 0
    17500, 2.41264e-07, 6.92465e-07, 0, 0
    17600, 2.41054e-07, 6.92322e-07, 0, 0
    17700, 2.40735e-07, 6.81409e-07, 0, 0
    17800, 2.40527e-07, 6.81341e-07, 0, 0
    17900, 2.40239e-07, 6.73094e-07, 0, 0
    18000, 2.39979e-07, 6.67742e-07, 0, 0
    18100, 2.39741e-07, 6.65118e-07, 0, 0
    18200, 2.39442e-07, 6.53416e-07, 0, 0
    18300, 2.39176e-07, 6.49223e-07, 0, 0
    18400, 2.38989e-07, 6.48662e-07, 0, 0
    18500, 2.38667e-07, 6.38988e-07, 0, 0
    18600, 2.38415e-07, 6.33567e-07, 0, 0
    18700, 2.38171e-07, 6.2843e-07, 0, 0
    18800, 2.3793e-07, 6.23425e-07, 0, 0
    18900, 2.37688e-07, 6.86372e-07, 0, 0
    19000, 2.3748e-07, 6.20155e-07, 0, 0
    19100, 2.3719e-07, 6.09061e-07, 0, 0
    19200, 2.36942e-07, 6.0607e-07, 0, 0
    19300, 2.36708e-07, 6.80833e-07, 0, 0
    19400, 2.36448e-07, 5.96448e-07, 0, 0
    19500, 2.3622e-07, 5.9108e-07, 0, 0
    19600, 2.35985e-07, 5.8656e-07, 0, 0
    19700, 2.35747e-07, 5.8227e-07, 0, 0
    19800, 2.3551e-07, 5.78035e-07, 0, 0
    19900, 2.35273e-07, 5.73846e-07, 0, 0
--> FOAM Warning : Max iterations reached within momentum loop
Max sigmaEq (von Mises stress) = 4.29427e+06
ExecutionTime = 628.47 s  ClockTime = 629 s

Jacobian determinant max. 1.00383 min. 0.994603

--> FOAM Warning : 
    From function nonLinearGeometryTotalLagrangianTotalDisplacement::end()
    in file solidModels/solidModel/solidModel.C at line 1741
    The maximum momentum correctors were reached in 30 time-steps


End

