/*---------------------------------------------------------------------------*\
| =========                 |                                                 |
| \\      /  F ield         | foam-extend: Open Source CFD                    |
|  \\    /   O peration     | Version:     4.1                                |
|   \\  /    A nd           | Web:         http://www.foam-extend.org         |
|    \\/     M anipulation  | For copyright notice see file Copyright         |
\*---------------------------------------------------------------------------*/
Build  : 4.1-70b064d0f326
Exec   : solids4Foam
Date   : Dec 15 2022
Time   : 14:45:17
Host   : "iloliveira"
PID    : 401378
CtrlDict : "/home/iloliveira/foam/solids4foam-fork-fe41/tutorials/solids/hyperelasticity/cylinderCrushBijelonja/system/controlDict"
Case   : /home/iloliveira/foam/solids4foam-fork-fe41/tutorials/solids/hyperelasticity/cylinderCrushBijelonja
nProcs : 1
sigFpe : Enabling floating point exception trapping (FOAM_SIGFPE).
allowSystemOperations : Disallowing user-supplied system call operations

// * * * * * * * * * * * * * * * * * * * * * * * * * * * * * * * * * * * * * //
Create time

/*---------------------------------------------------------------------------*\
|    For further information on the solids4Foam toolbox implementations,      |
|    please see the following publications:                                   |
|                                                                             |
|    P. Cardiff, A Karac, P. De Jaeger, H. Jasak, J. Nagy, A. Ivankovic,      |
|    Z. Tukovic: An open-source finite volume toolbox for solid mechanics and |
|    fluid-solid interaction simulations. arXiv:1808.10736v2, 2018, available |
|    at https://arxiv.org/abs/1808.10736.                                     |
|                                                                             |
|    Z. Tukovic, A. Karac, P. Cardiff, H. Jasak, A. Ivankovic: OpenFOAM       |
|    finite volume solver for fluid-solid interaction.  Transactions of       |
|    Famena, 42 (3), pp. 1-31, 2018, 10.21278/TOF.42301.                      |
\*---------------------------------------------------------------------------*/

Selecting physicsModel solidModel
Selecting solidModel nonLinearGeometryTotalLagrangian
Selecting dynamicFvMesh staticFvMesh
Creating fixedDisplacement boundary condition
    displacement is time-varying
Symmetry boundary condition with non-orthogonal correction
Symmetry boundary condition with non-orthogonal correction
    under-relaxation method: fixed
Creating the mechanicalModel
Selecting mechanical law MooneyRivlinElastic
    Laplacian equation will be solved for pressure
    pressureSmoothingScaleFactor: 100
Material properties 
    max(c10) = 293000
    max(c01) = 177000
    max(c11) = 0
    max(mu) = 940000
    max(K) = 1.41e+09
Reading individual shadowPatch
    solidContact: topContact
        useNewPointDistanceMethod: false
        projectPointsToPatchBoundary: false
        usePrevCandidateMasterNeighbors: false
    Normal contact model: standardPenalty
    Initialising stored previous normalPenaltyFactors
    Friction contact model: frictionless
    normal penalty factor: 8.63995e+10
Creating displacement function object
    region = region0
    distance from specified point is 0
Creating forceCylinder function object
Creating Jacob function object
Jacobian determinant max. 1 min. 1

Time = 1

Evolving solid solver
Solving the total Lagrangian form of the momentum equation for DD
setCellDisplacements: reading cellDisplacements
    Corr, res, relRes, matRes, iters
    100, 0.000252163, 0.00284797, 0, 0
    200, 4.08242e-05, 0.000290203, 0, 0
    300, 3.91764e-05, 0.000635278, 0, 0
    400, 4.07373e-05, 0.000693045, 0, 0
    500, 4.18552e-05, 0.000703778, 0, 0
    600, 4.33651e-05, 0.000706215, 0, 0
    700, 4.5169e-05, 0.000706284, 0, 0
    800, 4.62145e-05, 0.000705041, 0, 0
    900, 4.43792e-05, 0.000702726, 0, 0
    1000, 4.26489e-05, 0.000699559, 0, 0
    1100, 4.09862e-05, 0.000695531, 0, 0
    1200, 3.94032e-05, 0.000690734, 0, 0
    1300, 3.7906e-05, 0.000685231, 0, 0
    1400, 3.64945e-05, 0.000679085, 0, 0
    1500, 3.51985e-05, 0.000672335, 0, 0
    1600, 3.39636e-05, 0.000665101, 0, 0
    1700, 3.27857e-05, 0.000657405, 0, 0
    1800, 3.16542e-05, 0.000649303, 0, 0
    1900, 3.05677e-05, 0.000640854, 0, 0
    2000, 2.95985e-05, 0.00063212, 0, 0
    2100, 2.86872e-05, 0.000623143, 0, 0
    2200, 2.7811e-05, 0.000613978, 0, 0
    2300, 2.71795e-05, 0.000604677, 0, 0
    2400, 2.80705e-05, 0.000595291, 0, 0
    2500, 2.9187e-05, 0.000585851, 0, 0
    2600, 3.04239e-05, 0.000576392, 0, 0
    2700, 3.16915e-05, 0.000566958, 0, 0
    2800, 3.29794e-05, 0.000557578, 0, 0
    2900, 3.42736e-05, 0.000547827, 0, 0
    3000, 3.55548e-05, 0.000537379, 0, 0
    3100, 3.6846e-05, 0.000527119, 0, 0
    3200, 3.80951e-05, 0.000517144, 0, 0
    3300, 3.42956e-05, 0.000224665, 0, 0
    3400, 3.18863e-05, 0.000101324, 0, 0
    3500, 3.29313e-05, 0.00014778, 0, 0
    3600, 2.87082e-05, 7.49486e-05, 0, 0
    3700, 2.62096e-05, 7.41305e-05, 0, 0
    3800, 2.48212e-05, 7.0727e-05, 0, 0
    3900, 2.36602e-05, 6.78208e-05, 0, 0
    4000, 2.258e-05, 6.49941e-05, 0, 0
    4100, 2.16531e-05, 6.22117e-05, 0, 0
    4200, 2.07835e-05, 5.9537e-05, 0, 0
    4300, 1.99624e-05, 5.69375e-05, 0, 0
    4400, 1.91923e-05, 5.44801e-05, 0, 0
    4500, 1.84781e-05, 5.21037e-05, 0, 0
    4600, 1.77553e-05, 4.98476e-05, 0, 0
    4700, 1.7058e-05, 4.76458e-05, 0, 0
    4800, 1.64374e-05, 4.56439e-05, 0, 0
    4900, 1.57862e-05, 4.36216e-05, 0, 0
    5000, 1.52038e-05, 4.17092e-05, 0, 0
    5100, 1.46236e-05, 4.00081e-05, 0, 0
    5200, 1.41015e-05, 3.8306e-05, 0, 0
    5300, 1.36082e-05, 3.68999e-05, 0, 0
    5400, 1.31162e-05, 3.55234e-05, 0, 0
    5500, 1.26355e-05, 3.41212e-05, 0, 0
    5600, 1.2185e-05, 3.29043e-05, 0, 0
    5700, 1.17462e-05, 3.17705e-05, 0, 0
    5800, 1.13305e-05, 3.04414e-05, 0, 0
    5900, 1.09424e-05, 2.93851e-05, 0, 0
    6000, 1.05732e-05, 2.81744e-05, 0, 0
    6100, 1.02133e-05, 2.71051e-05, 0, 0
    6200, 9.86782e-06, 2.60742e-05, 0, 0
    6300, 9.54263e-06, 2.50783e-05, 0, 0
    6400, 9.23029e-06, 2.41169e-05, 0, 0
    6500, 8.93053e-06, 2.31917e-05, 0, 0
    6600, 8.64253e-06, 2.23018e-05, 0, 0
    6700, 8.36763e-06, 2.14458e-05, 0, 0
    6800, 8.10269e-06, 2.06225e-05, 0, 0
    6900, 7.8483e-06, 1.98306e-05, 0, 0
    7000, 7.60415e-06, 1.90688e-05, 0, 0
    7100, 7.36862e-06, 1.8336e-05, 0, 0
    7200, 7.14168e-06, 1.76311e-05, 0, 0
    7300, 6.92281e-06, 1.69531e-05, 0, 0
    7400, 6.71196e-06, 1.6301e-05, 0, 0
    7500, 6.50908e-06, 1.56737e-05, 0, 0
    7600, 6.3136e-06, 1.50704e-05, 0, 0
    7700, 6.1272e-06, 1.449e-05, 0, 0
    7800, 5.94966e-06, 1.39318e-05, 0, 0
    7900, 5.78009e-06, 1.33949e-05, 0, 0
    8000, 5.61697e-06, 1.28785e-05, 0, 0
    8100, 5.45989e-06, 1.23816e-05, 0, 0
    8200, 5.3081e-06, 1.19037e-05, 0, 0
    8300, 5.16141e-06, 1.1445e-05, 0, 0
    8400, 5.02025e-06, 1.10024e-05, 0, 0
    8500, 4.88439e-06, 1.05772e-05, 0, 0
    8600, 4.75305e-06, 1.01689e-05, 0, 0
    8700, 4.62293e-06, 9.78441e-06, 0, 0
    8800, 4.49951e-06, 9.41091e-06, 0, 0
    8900, 4.38808e-06, 9.04799e-06, 0, 0
    9000, 4.27907e-06, 8.69854e-06, 0, 0
    9100, 4.17291e-06, 8.36136e-06, 0, 0
    9200, 4.07056e-06, 8.03672e-06, 0, 0
    9300, 3.97179e-06, 7.72427e-06, 0, 0
    9400, 3.87629e-06, 7.42368e-06, 0, 0
    9500, 3.78736e-06, 7.13398e-06, 0, 0
    9600, 3.69896e-06, 6.86043e-06, 0, 0
    9700, 3.61311e-06, 6.63267e-06, 0, 0
    9800, 3.52994e-06, 6.41455e-06, 0, 0
    9900, 3.4498e-06, 6.20561e-06, 0, 0
    10000, 3.37252e-06, 6.00546e-06, 0, 0
    10100, 3.29805e-06, 5.81374e-06, 0, 0
    10200, 3.22594e-06, 5.63007e-06, 0, 0
    10300, 3.15666e-06, 5.45412e-06, 0, 0
    10400, 3.09011e-06, 5.28555e-06, 0, 0
    10500, 3.02585e-06, 5.12404e-06, 0, 0
    10600, 2.96332e-06, 4.98482e-06, 0, 0
    10700, 2.90305e-06, 4.81064e-06, 0, 0
    10800, 2.84252e-06, 4.67136e-06, 0, 0
    10900, 2.7855e-06, 4.53893e-06, 0, 0
    11000, 2.7281e-06, 4.42115e-06, 0, 0
    11100, 2.67328e-06, 4.29692e-06, 0, 0
    11200, 2.62169e-06, 4.17733e-06, 0, 0
    11300, 2.57241e-06, 4.06292e-06, 0, 0
    11400, 2.52509e-06, 3.95227e-06, 0, 0
    11500, 2.47936e-06, 3.84636e-06, 0, 0
    11600, 2.43519e-06, 3.74452e-06, 0, 0
    11700, 2.393e-06, 3.64633e-06, 0, 0
    11800, 2.35216e-06, 3.55263e-06, 0, 0
    11900, 2.31269e-06, 3.4627e-06, 0, 0
    12000, 2.27451e-06, 3.37673e-06, 0, 0
    12100, 2.24027e-06, 3.30706e-06, 0, 0
    12200, 2.20541e-06, 3.22108e-06, 0, 0
    12300, 2.17201e-06, 3.14222e-06, 0, 0
    12400, 2.13876e-06, 3.06637e-06, 0, 0
    12500, 2.10625e-06, 2.99334e-06, 0, 0
    12600, 2.07436e-06, 2.92451e-06, 0, 0
    12700, 2.04332e-06, 2.85833e-06, 0, 0
    12800, 2.0133e-06, 2.7941e-06, 0, 0
    12900, 1.98408e-06, 2.73329e-06, 0, 0
    13000, 1.95564e-06, 2.67457e-06, 0, 0
    13100, 1.9279e-06, 2.61794e-06, 0, 0
    13200, 1.90096e-06, 2.56337e-06, 0, 0
    13300, 1.87476e-06, 2.5108e-06, 0, 0
    13400, 1.84916e-06, 2.46685e-06, 0, 0
    13500, 1.82447e-06, 2.39692e-06, 0, 0
    13600, 1.80089e-06, 2.28872e-06, 0, 0
    13700, 1.77721e-06, 2.26193e-06, 0, 0
    13800, 1.75388e-06, 2.22439e-06, 0, 0
    13900, 1.73137e-06, 2.1877e-06, 0, 0
    14000, 1.70952e-06, 2.15051e-06, 0, 0
    14100, 1.6883e-06, 2.11374e-06, 0, 0
    14200, 1.66755e-06, 2.07859e-06, 0, 0
    14300, 1.64743e-06, 2.04382e-06, 0, 0
    14400, 1.62783e-06, 2.00979e-06, 0, 0
    14500, 1.60865e-06, 1.97751e-06, 0, 0
    14600, 1.59e-06, 1.9457e-06, 0, 0
    14700, 1.57182e-06, 1.91463e-06, 0, 0
    14800, 1.55647e-06, 1.87203e-06, 0, 0
    14900, 1.54168e-06, 1.84013e-06, 0, 0
    15000, 1.52562e-06, 1.81202e-06, 0, 0
    15100, 1.50941e-06, 1.78769e-06, 0, 0
    15200, 1.49342e-06, 1.76453e-06, 0, 0
    15300, 1.47724e-06, 1.75027e-06, 0, 0
    15400, 1.46271e-06, 1.77249e-06, 0, 0
    15500, 1.44842e-06, 1.41811e-06, 0, 0
    15600, 1.43158e-06, 1.39237e-06, 0, 0
    15700, 1.41804e-06, 1.71874e-06, 0, 0
    15800, 1.39886e-06, 1.77293e-06, 0, 0
    15900, 1.3884e-06, 1.35325e-06, 0, 0
    16000, 1.36277e-06, 1.33387e-06, 0, 0
    16100, 1.3497e-06, 1.66679e-06, 0, 0
    16200, 1.34054e-06, 1.72128e-06, 0, 0
    16300, 1.33394e-06, 1.2842e-06, 0, 0
    16400, 1.32267e-06, 1.27327e-06, 0, 0
    16500, 1.30362e-06, 1.66568e-06, 0, 0
    16600, 1.31054e-06, 1.24249e-06, 0, 0
    16700, 1.2854e-06, 1.66156e-06, 0, 0
    16800, 1.29228e-06, 1.2247e-06, 0, 0
    16900, 1.28541e-06, 1.20011e-06, 0, 0
    17000, 1.26808e-06, 1.19545e-06, 0, 0
    17100, 1.25498e-06, 1.17458e-06, 0, 0
    17200, 1.24671e-06, 1.59906e-06, 0, 0
    17300, 1.24678e-06, 1.69859e-06, 0, 0
    17400, 1.24551e-06, 1.74756e-06, 0, 0
    17500, 1.2268e-06, 1.1353e-06, 0, 0
    17600, 1.21954e-06, 1.12661e-06, 0, 0
    17700, 1.20797e-06, 1.55825e-06, 0, 0
    17800, 1.20512e-06, 1.11066e-06, 0, 0
    17900, 1.19967e-06, 1.07973e-06, 0, 0
    18000, 1.19155e-06, 1.0741e-06, 0, 0
    18100, 1.19297e-06, 1.7182e-06, 0, 0
    18200, 1.1802e-06, 1.03821e-06, 0, 0
    18300, 1.16873e-06, 1.01686e-06, 0, 0
    18400, 1.16686e-06, 1.05051e-06, 0, 0
    18500, 1.16187e-06, 1.02933e-06, 0, 0
    18600, 1.15487e-06, 1.03965e-06, 0, 0
    18700, 1.14581e-06, 1.00795e-06, 0, 0
    18800, 1.15458e-06, 1.00075e-06, 0, 0
    18900, 1.1339e-06, 9.79878e-07, 0, 0
    19000, 1.13012e-06, 9.9602e-07, 0, 0
    19100, 1.12296e-06, 9.68383e-07, 0, 0
    19200, 1.11587e-06, 9.62622e-07, 0, 0
    19300, 1.1125e-06, 9.5634e-07, 0, 0
    19400, 1.10575e-06, 9.50635e-07, 0, 0
    19500, 1.09751e-06, 9.57516e-07, 0, 0
    19600, 1.0954e-06, 1.58357e-06, 0, 0
    19700, 1.08915e-06, 9.32349e-07, 0, 0
    19800, 1.08352e-06, 9.25943e-07, 0, 0
    19900, 1.08145e-06, 8.78129e-07, 0, 0
--> FOAM Warning : Max iterations reached within momentum loop
Max sigmaEq (von Mises stress) = 105097
ExecutionTime = 17.35 s  ClockTime = 17 s

Jacobian determinant max. 1.00086 min. 0.999346

Time = 2

Evolving solid solver
Solving the total Lagrangian form of the momentum equation for DD
    Corr, res, relRes, matRes, iters
    100, 0.00014109, 0.00239573, 0, 0
    200, 4.0859e-05, 0.00102632, 0, 0
    300, 4.16011e-05, 0.00147589, 0, 0
    400, 4.02625e-05, 0.00163483, 0, 0
    500, 3.84616e-05, 0.00176825, 0, 0
    600, 3.81206e-05, 0.00192556, 0, 0
    700, 3.92095e-05, 0.00212427, 0, 0
    800, 4.05852e-05, 0.00238331, 0, 0
    900, 4.21797e-05, 0.00273088, 0, 0
    1000, 3.58979e-05, 0.000832548, 0, 0
    1100, 3.50982e-05, 0.00122927, 0, 0
    1200, 1.82602e-05, 0.000327097, 0, 0
    1300, 1.251e-05, 0.000135529, 0, 0
    1400, 1.0929e-05, 0.000156039, 0, 0
    1500, 1.07378e-05, 0.000157243, 0, 0
    1600, 1.0049e-05, 9.49707e-05, 0, 0
    1700, 1.00512e-05, 0.000100506, 0, 0
    1800, 9.55105e-06, 8.15951e-05, 0, 0
    1900, 9.2631e-06, 7.97794e-05, 0, 0
    2000, 8.99455e-06, 7.38142e-05, 0, 0
    2100, 8.9386e-06, 0.00012778, 0, 0
    2200, 8.73262e-06, 7.77859e-05, 0, 0
    2300, 8.38942e-06, 6.04566e-05, 0, 0
    2400, 8.06872e-06, 5.94419e-05, 0, 0
    2500, 8.03466e-06, 0.000101398, 0, 0
    2600, 7.94982e-06, 5.49894e-05, 0, 0
    2700, 7.61097e-06, 8.75889e-05, 0, 0
    2800, 7.36789e-06, 4.8987e-05, 0, 0
    2900, 7.19509e-06, 6.35409e-05, 0, 0
    3000, 7.20056e-06, 4.88275e-05, 0, 0
    3100, 6.94248e-06, 7.12784e-05, 0, 0
    3200, 6.73595e-06, 4.2138e-05, 0, 0
    3300, 6.72504e-06, 8.28716e-05, 0, 0
    3400, 6.63816e-06, 4.32977e-05, 0, 0
    3500, 6.50013e-06, 7.6038e-05, 0, 0
    3600, 6.38644e-06, 3.68174e-05, 0, 0
    3700, 6.29019e-06, 6.37402e-05, 0, 0
    3800, 6.1609e-06, 3.16685e-05, 0, 0
    3900, 6.0401e-06, 5.99591e-05, 0, 0
    4000, 5.91879e-06, 2.97507e-05, 0, 0
    4100, 5.82289e-06, 2.88851e-05, 0, 0
    4200, 5.77109e-06, 2.86136e-05, 0, 0
    4300, 5.67935e-06, 3.06762e-05, 0, 0
    4400, 5.59779e-06, 3.1174e-05, 0, 0
    4500, 5.50161e-06, 2.9166e-05, 0, 0
    4600, 5.42901e-06, 2.62015e-05, 0, 0
    4700, 5.29807e-06, 2.57981e-05, 0, 0
    4800, 5.25012e-06, 2.60196e-05, 0, 0
    4900, 5.1783e-06, 2.83254e-05, 0, 0
    5000, 5.11676e-06, 2.82766e-05, 0, 0
    5100, 5.02028e-06, 4.671e-05, 0, 0
    5200, 4.94032e-06, 2.32109e-05, 0, 0
    5300, 4.91956e-06, 4.99145e-05, 0, 0
    5400, 4.7908e-06, 3.27983e-05, 0, 0
    5500, 4.73945e-06, 2.20146e-05, 0, 0
    5600, 4.6587e-06, 2.22099e-05, 0, 0
    5700, 4.60189e-06, 2.19584e-05, 0, 0
    5800, 4.56498e-06, 2.35746e-05, 0, 0
    5900, 4.48898e-06, 3.25313e-05, 0, 0
    6000, 4.40009e-06, 1.94206e-05, 0, 0
    6100, 4.39425e-06, 1.93464e-05, 0, 0
    6200, 4.33437e-06, 1.90457e-05, 0, 0
    6300, 4.27472e-06, 1.87653e-05, 0, 0
    6400, 4.2249e-06, 1.91681e-05, 0, 0
    6500, 4.17821e-06, 1.81255e-05, 0, 0
    6600, 4.12845e-06, 1.78509e-05, 0, 0
    6700, 4.09443e-06, 1.74868e-05, 0, 0
    6800, 4.05165e-06, 1.70185e-05, 0, 0
    6900, 4.00463e-06, 1.68962e-05, 0, 0
    7000, 3.96065e-06, 1.77657e-05, 0, 0
    7100, 3.94372e-06, 3.73466e-05, 0, 0
    7200, 3.88845e-06, 1.89465e-05, 0, 0
    7300, 3.82718e-06, 2.06202e-05, 0, 0
    7400, 3.78792e-06, 2.03954e-05, 0, 0
    7500, 3.7947e-06, 3.47422e-05, 0, 0
    7600, 3.72239e-06, 1.48645e-05, 0, 0
    7700, 3.67555e-06, 1.48681e-05, 0, 0
    7800, 3.63635e-06, 1.43034e-05, 0, 0
    7900, 3.58108e-06, 1.4088e-05, 0, 0
    8000, 3.57837e-06, 1.67611e-05, 0, 0
    8100, 3.55002e-06, 1.36391e-05, 0, 0
    8200, 3.49181e-06, 1.37876e-05, 0, 0
    8300, 3.45007e-06, 1.31633e-05, 0, 0
    8400, 3.4344e-06, 1.32551e-05, 0, 0
    8500, 3.39063e-06, 1.30851e-05, 0, 0
    8600, 3.35801e-06, 1.24425e-05, 0, 0
    8700, 3.33039e-06, 1.30042e-05, 0, 0
    8800, 3.29021e-06, 2.02171e-05, 0, 0
    8900, 3.25887e-06, 1.24529e-05, 0, 0
    9000, 3.22801e-06, 1.21288e-05, 0, 0
    9100, 3.19083e-06, 1.17313e-05, 0, 0
    9200, 3.17029e-06, 2.78984e-05, 0, 0
    9300, 3.13693e-06, 1.91723e-05, 0, 0
    9400, 3.10904e-06, 1.1388e-05, 0, 0
    9500, 3.07411e-06, 1.13592e-05, 0, 0
    9600, 3.07122e-06, 1.10905e-05, 0, 0
    9700, 3.02566e-06, 1.10225e-05, 0, 0
    9800, 2.99985e-06, 1.0883e-05, 0, 0
    9900, 2.97278e-06, 1.08149e-05, 0, 0
    10000, 2.96888e-06, 1.05014e-05, 0, 0
    10100, 2.9397e-06, 1.06508e-05, 0, 0
    10200, 2.91853e-06, 1.26215e-05, 0, 0
    10300, 2.86447e-06, 1.00639e-05, 0, 0
    10400, 2.84311e-06, 9.89801e-06, 0, 0
    10500, 2.83584e-06, 9.55541e-06, 0, 0
    10600, 2.80264e-06, 9.59262e-06, 0, 0
    10700, 2.78751e-06, 9.34141e-06, 0, 0
    10800, 2.76983e-06, 9.14032e-06, 0, 0
    10900, 2.73644e-06, 9.14685e-06, 0, 0
    11000, 2.71525e-06, 9.0402e-06, 0, 0
    11100, 2.70156e-06, 9.70332e-06, 0, 0
    11200, 2.71805e-06, 1.25255e-05, 0, 0
    11300, 2.66627e-06, 9.04377e-06, 0, 0
    11400, 2.64344e-06, 8.79982e-06, 0, 0
    11500, 2.62388e-06, 8.59585e-06, 0, 0
    11600, 2.61022e-06, 8.23063e-06, 0, 0
    11700, 2.61537e-06, 8.30871e-06, 0, 0
    11800, 2.57256e-06, 8.2e-06, 0, 0
    11900, 2.55736e-06, 8.69254e-06, 0, 0
    12000, 2.54065e-06, 8.1914e-06, 0, 0
    12100, 2.52756e-06, 7.7919e-06, 0, 0
    12200, 2.54237e-06, 1.61947e-05, 0, 0
    12300, 2.491e-06, 7.72533e-06, 0, 0
    12400, 2.51908e-06, 1.19106e-05, 0, 0
    12500, 2.46184e-06, 7.49225e-06, 0, 0
    12600, 2.48719e-06, 1.15965e-05, 0, 0
    12700, 2.4285e-06, 7.41234e-06, 0, 0
    12800, 2.45189e-06, 1.04895e-05, 0, 0
    12900, 2.40361e-06, 7.25333e-06, 0, 0
    13000, 2.39103e-06, 7.02185e-06, 0, 0
    13100, 2.37151e-06, 7.05718e-06, 0, 0
    13200, 2.39283e-06, 1.02849e-05, 0, 0
    13300, 2.34255e-06, 6.84835e-06, 0, 0
    13400, 2.35108e-06, 6.6447e-06, 0, 0
    13500, 2.31794e-06, 6.41257e-06, 0, 0
    13600, 2.29946e-06, 6.65274e-06, 0, 0
    13700, 2.29306e-06, 1.15761e-05, 0, 0
    13800, 2.27812e-06, 6.22391e-06, 0, 0
    13900, 2.26352e-06, 6.37156e-06, 0, 0
    14000, 2.25802e-06, 1.18661e-05, 0, 0
    14100, 2.24095e-06, 6.0552e-06, 0, 0
    14200, 2.22801e-06, 6.21974e-06, 0, 0
    14300, 2.22042e-06, 6.71189e-06, 0, 0
    14400, 2.20064e-06, 5.99891e-06, 0, 0
    14500, 2.21686e-06, 1.7703e-05, 0, 0
    14600, 2.17536e-06, 5.78335e-06, 0, 0
    14700, 2.16772e-06, 6.02202e-06, 0, 0
    14800, 2.15457e-06, 5.61549e-06, 0, 0
    14900, 2.14083e-06, 5.79069e-06, 0, 0
    15000, 2.13124e-06, 5.7758e-06, 0, 0
    15100, 2.11607e-06, 5.58765e-06, 0, 0
    15200, 2.13986e-06, 9.53328e-06, 0, 0
    15300, 2.09347e-06, 5.32488e-06, 0, 0
    15400, 2.08433e-06, 5.50072e-06, 0, 0
    15500, 2.07724e-06, 5.6579e-06, 0, 0
    15600, 2.06065e-06, 5.2284e-06, 0, 0
    15700, 2.05722e-06, 5.46923e-06, 0, 0
    15800, 2.04281e-06, 5.0012e-06, 0, 0
    15900, 2.03605e-06, 5.17563e-06, 0, 0
    16000, 2.05533e-06, 9.20008e-06, 0, 0
    16100, 2.01545e-06, 4.82732e-06, 0, 0
    16200, 1.99767e-06, 5.00474e-06, 0, 0
    16300, 2.02281e-06, 1.586e-05, 0, 0
    16400, 1.98835e-06, 4.7113e-06, 0, 0
    16500, 1.96744e-06, 4.79795e-06, 0, 0
    16600, 1.97805e-06, 4.56934e-06, 0, 0
    16700, 1.95479e-06, 4.56806e-06, 0, 0
    16800, 1.93976e-06, 4.69612e-06, 0, 0
    16900, 1.94115e-06, 4.74534e-06, 0, 0
    17000, 1.95735e-06, 8.0275e-06, 0, 0
    17100, 1.91332e-06, 4.47408e-06, 0, 0
    17200, 1.90274e-06, 4.53477e-06, 0, 0
    17300, 1.92193e-06, 1.42336e-05, 0, 0
    17400, 1.89396e-06, 4.25057e-06, 0, 0
    17500, 1.88057e-06, 4.29635e-06, 0, 0
    17600, 1.87514e-06, 4.39842e-06, 0, 0
    17700, 1.87314e-06, 9.89367e-06, 0, 0
    17800, 1.85065e-06, 4.03883e-06, 0, 0
    17900, 1.84142e-06, 4.19078e-06, 0, 0
    18000, 1.83715e-06, 4.21965e-06, 0, 0
    18100, 1.83715e-06, 9.58757e-06, 0, 0
    18200, 1.819e-06, 3.90066e-06, 0, 0
    18300, 1.80265e-06, 3.97648e-06, 0, 0
    18400, 1.80207e-06, 4.12848e-06, 0, 0
    18500, 1.8052e-06, 8.58366e-06, 0, 0
    18600, 1.78225e-06, 3.77854e-06, 0, 0
    18700, 1.76971e-06, 3.22862e-06, 0, 0
    18800, 1.76884e-06, 8.14515e-06, 0, 0
    18900, 1.7586e-06, 3.72372e-06, 0, 0
    19000, 1.74754e-06, 3.68591e-06, 0, 0
    19100, 1.73791e-06, 3.11256e-06, 0, 0
    19200, 1.74585e-06, 4.84924e-06, 0, 0
    19300, 1.72702e-06, 3.59467e-06, 0, 0
    19400, 1.7131e-06, 3.63011e-06, 0, 0
    19500, 1.70524e-06, 3.03143e-06, 0, 0
    19600, 1.69827e-06, 3.74861e-06, 0, 0
    19700, 1.69814e-06, 6.87964e-06, 0, 0
    19800, 1.68903e-06, 2.90199e-06, 0, 0
    19900, 1.67253e-06, 2.95126e-06, 0, 0
--> FOAM Warning : Max iterations reached within momentum loop
Max sigmaEq (von Mises stress) = 171819
ExecutionTime = 34.77 s  ClockTime = 35 s

Jacobian determinant max. 1.00119 min. 0.999252

Time = 3

Evolving solid solver
Solving the total Lagrangian form of the momentum equation for DD
    Corr, res, relRes, matRes, iters
    100, 9.80041e-05, 0.0017486, 0, 0
    200, 4.81586e-05, 0.00244234, 0, 0
    300, 5.01881e-05, 0.00333204, 0, 0
    400, 5.44916e-05, 0.00427769, 0, 0
    500, 5.44158e-05, 0.00286426, 0, 0
    600, 3.66253e-05, 0.00131905, 0, 0
    700, 2.78167e-05, 0.00108177, 0, 0
    800, 2.78174e-05, 0.00126615, 0, 0
    900, 1.38009e-05, 0.000199351, 0, 0
    1000, 1.1831e-05, 0.000124673, 0, 0
    1100, 1.13107e-05, 0.000200129, 0, 0
    1200, 1.15649e-05, 0.000110424, 0, 0
    1300, 1.10938e-05, 9.79104e-05, 0, 0
    1400, 1.10051e-05, 8.32803e-05, 0, 0
    1500, 1.08726e-05, 0.00016266, 0, 0
    1600, 1.08664e-05, 8.43425e-05, 0, 0
    1700, 1.08103e-05, 7.9806e-05, 0, 0
    1800, 1.07752e-05, 8.03943e-05, 0, 0
    1900, 1.0734e-05, 6.79577e-05, 0, 0
    2000, 1.06795e-05, 0.000152882, 0, 0
    2100, 1.06184e-05, 6.909e-05, 0, 0
    2200, 1.05703e-05, 6.33337e-05, 0, 0
    2300, 1.04227e-05, 5.99307e-05, 0, 0
    2400, 1.0286e-05, 5.32543e-05, 0, 0
    2500, 1.01804e-05, 4.5829e-05, 0, 0
    2600, 1.04326e-05, 9.34312e-05, 0, 0
    2700, 9.96288e-06, 4.29664e-05, 0, 0
    2800, 9.83757e-06, 0.000137137, 0, 0
    2900, 9.80573e-06, 0.000127561, 0, 0
    3000, 9.59568e-06, 5.15144e-05, 0, 0
    3100, 9.22505e-06, 0.000110584, 0, 0
    3200, 8.96974e-06, 3.42454e-05, 0, 0
    3300, 8.68902e-06, 3.92062e-05, 0, 0
    3400, 8.39643e-06, 4.02213e-05, 0, 0
    3500, 8.09241e-06, 3.91229e-05, 0, 0
    3600, 8.02452e-06, 4.95378e-05, 0, 0
    3700, 7.86161e-06, 5.91858e-05, 0, 0
    3800, 7.37191e-06, 8.66432e-05, 0, 0
    3900, 7.41667e-06, 5.57578e-05, 0, 0
    4000, 6.97055e-06, 8.9827e-05, 0, 0
    4100, 6.84444e-06, 2.79436e-05, 0, 0
    4200, 6.65295e-06, 3.00107e-05, 0, 0
    4300, 6.49044e-06, 2.94716e-05, 0, 0
    4400, 6.345e-06, 2.89822e-05, 0, 0
    4500, 6.18158e-06, 2.71638e-05, 0, 0
    4600, 6.0632e-06, 2.89129e-05, 0, 0
    4700, 5.91814e-06, 2.47509e-05, 0, 0
    4800, 5.76867e-06, 2.70198e-05, 0, 0
    4900, 5.61927e-06, 6.89874e-05, 0, 0
    5000, 5.54927e-06, 6.06975e-05, 0, 0
    5100, 5.45635e-06, 2.6354e-05, 0, 0
    5200, 5.36158e-06, 2.41832e-05, 0, 0
    5300, 5.34144e-06, 3.56974e-05, 0, 0
    5400, 5.12334e-06, 6.45226e-05, 0, 0
    5500, 5.06924e-06, 2.3919e-05, 0, 0
    5600, 4.9791e-06, 2.25888e-05, 0, 0
    5700, 4.84153e-06, 6.19502e-05, 0, 0
    5800, 4.80282e-06, 2.34488e-05, 0, 0
    5900, 4.72729e-06, 2.07738e-05, 0, 0
    6000, 4.60815e-06, 6.1185e-05, 0, 0
    6100, 4.56407e-06, 2.21014e-05, 0, 0
    6200, 4.45919e-06, 2.12434e-05, 0, 0
    6300, 4.4105e-06, 2.04613e-05, 0, 0
    6400, 4.36066e-06, 1.91445e-05, 0, 0
    6500, 4.26284e-06, 5.11502e-05, 0, 0
    6600, 4.2246e-06, 1.97296e-05, 0, 0
    6700, 4.23348e-06, 3.33428e-05, 0, 0
    6800, 4.09972e-06, 1.95169e-05, 0, 0
    6900, 4.008e-06, 4.60216e-05, 0, 0
    7000, 3.98022e-06, 1.89926e-05, 0, 0
    7100, 3.97262e-06, 2.80791e-05, 0, 0
    7200, 3.87089e-06, 1.86608e-05, 0, 0
    7300, 3.86936e-06, 2.72411e-05, 0, 0
    7400, 3.76344e-06, 1.73748e-05, 0, 0
    7500, 3.69923e-06, 4.94602e-05, 0, 0
    7600, 3.67642e-06, 1.66664e-05, 0, 0
    7700, 3.60403e-06, 1.65656e-05, 0, 0
    7800, 3.5611e-06, 1.54265e-05, 0, 0
    7900, 3.53413e-06, 1.60851e-05, 0, 0
    8000, 3.47587e-06, 4.28037e-05, 0, 0
    8100, 3.45957e-06, 1.54471e-05, 0, 0
    8200, 3.38907e-06, 1.53501e-05, 0, 0
    8300, 3.34696e-06, 1.43615e-05, 0, 0
    8400, 3.33282e-06, 1.50142e-05, 0, 0
    8500, 3.2729e-06, 4.3913e-05, 0, 0
    8600, 3.25749e-06, 1.38222e-05, 0, 0
    8700, 3.20405e-06, 1.40929e-05, 0, 0
    8800, 3.23132e-06, 2.6532e-05, 0, 0
    8900, 3.14361e-06, 1.36449e-05, 0, 0
    9000, 3.09582e-06, 1.34368e-05, 0, 0
    9100, 3.05977e-06, 3.67537e-05, 0, 0
    9200, 3.04329e-06, 1.27605e-05, 0, 0
    9300, 2.99612e-06, 1.2832e-05, 0, 0
    9400, 3.02687e-06, 2.52016e-05, 0, 0
    9500, 2.93842e-06, 1.20167e-05, 0, 0
    9600, 2.90593e-06, 1.26219e-05, 0, 0
    9700, 2.86874e-06, 1.21211e-05, 0, 0
    9800, 2.84043e-06, 1.38816e-05, 0, 0
    9900, 2.81086e-06, 1.12045e-05, 0, 0
    10000, 2.79718e-06, 1.15208e-05, 0, 0
    10100, 2.75996e-06, 1.1579e-05, 0, 0
    10200, 2.7241e-06, 1.15269e-05, 0, 0
    10300, 2.68872e-06, 1.16332e-05, 0, 0
    10400, 2.72842e-06, 2.36678e-05, 0, 0
    10500, 2.63865e-06, 1.1133e-05, 0, 0
    10600, 2.62559e-06, 1.069e-05, 0, 0
    10700, 2.60267e-06, 1.04681e-05, 0, 0
    10800, 2.57875e-06, 1.03363e-05, 0, 0
    10900, 2.55471e-06, 1.01967e-05, 0, 0
    11000, 2.53123e-06, 1.00672e-05, 0, 0
    11100, 2.50958e-06, 9.97212e-06, 0, 0
    11200, 2.48823e-06, 9.87141e-06, 0, 0
    11300, 2.4671e-06, 9.77298e-06, 0, 0
    11400, 2.4462e-06, 9.67581e-06, 0, 0
    11500, 2.42414e-06, 9.66133e-06, 0, 0
    11600, 2.40316e-06, 9.60128e-06, 0, 0
    11700, 2.38428e-06, 9.44574e-06, 0, 0
    11800, 2.36547e-06, 9.23715e-06, 0, 0
    11900, 2.34518e-06, 9.07276e-06, 0, 0
    12000, 2.32434e-06, 8.94749e-06, 0, 0
    12100, 2.30394e-06, 8.837e-06, 0, 0
    12200, 2.28394e-06, 8.73621e-06, 0, 0
    12300, 2.26393e-06, 8.68184e-06, 0, 0
    12400, 2.24157e-06, 6.76997e-06, 0, 0
    12500, 2.22359e-06, 8.79892e-06, 0, 0
    12600, 2.21467e-06, 2.75028e-05, 0, 0
    12700, 2.19534e-06, 9.62954e-06, 0, 0
    12800, 2.17504e-06, 7.83294e-06, 0, 0
    12900, 2.16785e-06, 7.91611e-06, 0, 0
    13000, 2.15227e-06, 7.99527e-06, 0, 0
    13100, 2.13558e-06, 8.02915e-06, 0, 0
    13200, 2.11956e-06, 7.82813e-06, 0, 0
    13300, 2.10023e-06, 6.14208e-06, 0, 0
    13400, 2.08266e-06, 6.08619e-06, 0, 0
    13500, 2.06805e-06, 5.97885e-06, 0, 0
    13600, 2.05961e-06, 6.39599e-06, 0, 0
    13700, 2.09111e-06, 1.76043e-05, 0, 0
    13800, 2.07656e-06, 1.76198e-05, 0, 0
    13900, 2.06215e-06, 1.74299e-05, 0, 0
    14000, 1.99716e-06, 2.43532e-05, 0, 0
    14100, 1.99044e-06, 6.10052e-06, 0, 0
    14200, 2.02598e-06, 1.67574e-05, 0, 0
    14300, 1.9589e-06, 5.52474e-06, 0, 0
    14400, 1.94832e-06, 5.46224e-06, 0, 0
    14500, 1.93647e-06, 5.41363e-06, 0, 0
    14600, 1.92598e-06, 5.34015e-06, 0, 0
    14700, 1.91243e-06, 6.80536e-06, 0, 0
    14800, 1.89848e-06, 6.96238e-06, 0, 0
    14900, 1.889e-06, 6.84808e-06, 0, 0
    15000, 1.87661e-06, 6.36355e-06, 0, 0
    15100, 1.86885e-06, 7.54502e-06, 0, 0
    15200, 1.85068e-06, 2.10696e-05, 0, 0
    15300, 1.84192e-06, 5.04193e-06, 0, 0
    15400, 1.83124e-06, 5.07907e-06, 0, 0
    15500, 1.82386e-06, 6.29748e-06, 0, 0
    15600, 1.81093e-06, 6.07345e-06, 0, 0
    15700, 1.79381e-06, 4.9542e-06, 0, 0
    15800, 1.7879e-06, 4.80396e-06, 0, 0
    15900, 1.77967e-06, 4.84783e-06, 0, 0
    16000, 1.76907e-06, 5.96217e-06, 0, 0
    16100, 1.76282e-06, 5.21649e-06, 0, 0
    16200, 1.7482e-06, 4.66203e-06, 0, 0
    16300, 1.74073e-06, 5.97371e-06, 0, 0
    16400, 1.7258e-06, 5.99182e-06, 0, 0
    16500, 1.71941e-06, 4.52896e-06, 0, 0
    16600, 1.71225e-06, 4.53371e-06, 0, 0
    16700, 1.70023e-06, 5.63468e-06, 0, 0
    16800, 1.69079e-06, 4.42653e-06, 0, 0
    16900, 1.68397e-06, 4.4177e-06, 0, 0
    17000, 1.6747e-06, 5.62966e-06, 0, 0
    17100, 1.66653e-06, 5.77659e-06, 0, 0
    17200, 1.65709e-06, 5.47026e-06, 0, 0
    17300, 1.64739e-06, 5.25401e-06, 0, 0
    17400, 1.64419e-06, 6.22191e-06, 0, 0
    17500, 1.66752e-06, 1.42291e-05, 0, 0
    17600, 1.66702e-06, 1.52044e-05, 0, 0
    17700, 1.61071e-06, 4.05078e-06, 0, 0
    17800, 1.60326e-06, 4.19271e-06, 0, 0
    17900, 1.5953e-06, 4.08941e-06, 0, 0
    18000, 1.58679e-06, 3.99998e-06, 0, 0
    18100, 1.57965e-06, 4.01344e-06, 0, 0
    18200, 1.57239e-06, 4.04418e-06, 0, 0
    18300, 1.56381e-06, 4.00107e-06, 0, 0
    18400, 1.55512e-06, 3.86837e-06, 0, 0
    18500, 1.54861e-06, 3.89224e-06, 0, 0
    18600, 1.54067e-06, 4.11152e-06, 0, 0
    18700, 1.53141e-06, 3.80725e-06, 0, 0
    18800, 1.5242e-06, 3.82465e-06, 0, 0
    18900, 1.51908e-06, 3.79743e-06, 0, 0
    19000, 1.51226e-06, 3.74936e-06, 0, 0
    19100, 1.50458e-06, 3.72399e-06, 0, 0
    19200, 1.49562e-06, 3.71611e-06, 0, 0
    19300, 1.49042e-06, 3.68623e-06, 0, 0
    19400, 1.48374e-06, 3.62245e-06, 0, 0
    19500, 1.47631e-06, 3.61013e-06, 0, 0
    19600, 1.46788e-06, 3.65603e-06, 0, 0
    19700, 1.46254e-06, 4.68002e-06, 0, 0
    19800, 1.4566e-06, 3.54562e-06, 0, 0
    19900, 1.44985e-06, 3.488e-06, 0, 0
--> FOAM Warning : Max iterations reached within momentum loop
Max sigmaEq (von Mises stress) = 230956
ExecutionTime = 52.46 s  ClockTime = 52 s

Jacobian determinant max. 1.00109 min. 0.999206

Time = 4

Evolving solid solver
Solving the total Lagrangian form of the momentum equation for DD
    Corr, res, relRes, matRes, iters
    100, 7.65496e-05, 0.00180362, 0, 0
    200, 6.18748e-05, 0.00621815, 0, 0
    300, 5.79359e-05, 0.00432086, 0, 0
    400, 3.75038e-05, 0.00158297, 0, 0
    500, 3.86783e-05, 0.00209073, 0, 0
    600, 3.18817e-05, 0.00115265, 0, 0
    700, 1.53026e-05, 0.000535641, 0, 0
    800, 1.2548e-05, 0.000193595, 0, 0
    900, 1.13485e-05, 0.00020451, 0, 0
    1000, 1.05679e-05, 0.000188096, 0, 0
    1100, 9.9606e-06, 0.000174385, 0, 0
    1200, 9.6735e-06, 0.000163747, 0, 0
    1300, 9.5611e-06, 0.000154461, 0, 0
    1400, 9.1415e-06, 0.000103322, 0, 0
    1500, 8.64634e-06, 8.26669e-05, 0, 0
    1600, 8.0383e-06, 6.77527e-05, 0, 0
    1700, 7.69114e-06, 5.79007e-05, 0, 0
    1800, 7.32942e-06, 5.02291e-05, 0, 0
    1900, 7.11035e-06, 5.11033e-05, 0, 0
    2000, 6.8646e-06, 4.99566e-05, 0, 0
    2100, 6.6047e-06, 4.93302e-05, 0, 0
    2200, 6.44151e-06, 4.75952e-05, 0, 0
    2300, 6.24351e-06, 4.66526e-05, 0, 0
    2400, 6.06547e-06, 4.31831e-05, 0, 0
    2500, 5.90361e-06, 4.55171e-05, 0, 0
    2600, 5.75332e-06, 4.41439e-05, 0, 0
    2700, 5.59003e-06, 3.84811e-05, 0, 0
    2800, 5.44318e-06, 4.0672e-05, 0, 0
    2900, 5.31739e-06, 4.00813e-05, 0, 0
    3000, 5.18041e-06, 3.47603e-05, 0, 0
    3100, 5.04839e-06, 3.51752e-05, 0, 0
    3200, 4.93988e-06, 3.63435e-05, 0, 0
    3300, 4.8198e-06, 3.36822e-05, 0, 0
    3400, 4.68491e-06, 3.01637e-05, 0, 0
    3500, 4.57467e-06, 3.04625e-05, 0, 0
    3600, 4.43625e-06, 2.56011e-05, 0, 0
    3700, 4.36411e-06, 2.89116e-05, 0, 0
    3800, 4.26382e-06, 2.78229e-05, 0, 0
    3900, 4.167e-06, 2.69464e-05, 0, 0
    4000, 4.06995e-06, 2.11209e-05, 0, 0
    4100, 3.96835e-06, 1.93477e-05, 0, 0
    4200, 3.9007e-06, 1.96348e-05, 0, 0
    4300, 3.77767e-06, 4.25119e-05, 0, 0
    4400, 3.69815e-06, 2.378e-05, 0, 0
    4500, 3.62722e-06, 1.71685e-05, 0, 0
    4600, 3.54444e-06, 1.53218e-05, 0, 0
    4700, 3.5066e-06, 1.56247e-05, 0, 0
    4800, 3.43321e-06, 1.48764e-05, 0, 0
    4900, 3.33683e-06, 1.46846e-05, 0, 0
    5000, 3.27817e-06, 3.38596e-05, 0, 0
    5100, 3.21824e-06, 1.40367e-05, 0, 0
    5200, 3.16944e-06, 1.38368e-05, 0, 0
    5300, 3.11334e-06, 1.33695e-05, 0, 0
    5400, 3.05728e-06, 1.32942e-05, 0, 0
    5500, 2.99738e-06, 3.46848e-05, 0, 0
    5600, 2.94333e-06, 1.27513e-05, 0, 0
    5700, 2.89128e-06, 1.43823e-05, 0, 0
    5800, 2.85399e-06, 1.19091e-05, 0, 0
    5900, 2.87713e-06, 2.35862e-05, 0, 0
    6000, 2.75222e-06, 1.1902e-05, 0, 0
    6100, 2.72925e-06, 1.16313e-05, 0, 0
    6200, 2.68886e-06, 1.27597e-05, 0, 0
    6300, 2.62506e-06, 1.12244e-05, 0, 0
    6400, 2.59476e-06, 1.1058e-05, 0, 0
    6500, 2.55055e-06, 3.05891e-05, 0, 0
    6600, 2.52257e-06, 1.19478e-05, 0, 0
    6700, 2.50138e-06, 1.25202e-05, 0, 0
    6800, 2.45272e-06, 1.16198e-05, 0, 0
    6900, 2.40712e-06, 3.16514e-05, 0, 0
    7000, 2.38454e-06, 1.02764e-05, 0, 0
    7100, 2.35169e-06, 1.04949e-05, 0, 0
    7200, 2.32364e-06, 9.0626e-06, 0, 0
    7300, 2.29938e-06, 1.04034e-05, 0, 0
    7400, 2.26552e-06, 1.19218e-05, 0, 0
    7500, 2.23867e-06, 9.50504e-06, 0, 0
    7600, 2.20696e-06, 9.35132e-06, 0, 0
    7700, 2.19232e-06, 3.05697e-05, 0, 0
    7800, 2.16145e-06, 9.20764e-06, 0, 0
    7900, 2.13271e-06, 8.92696e-06, 0, 0
    8000, 2.11512e-06, 2.77271e-05, 0, 0
    8100, 2.09119e-06, 8.83102e-06, 0, 0
    8200, 2.06436e-06, 8.58167e-06, 0, 0
    8300, 2.11025e-06, 1.89115e-05, 0, 0
    8400, 2.02684e-06, 8.37955e-06, 0, 0
    8500, 2.00073e-06, 8.27872e-06, 0, 0
    8600, 1.98456e-06, 9.91273e-06, 0, 0
    8700, 1.96258e-06, 7.89387e-06, 0, 0
    8800, 1.95653e-06, 8.39915e-06, 0, 0
    8900, 1.92631e-06, 8.07886e-06, 0, 0
    9000, 1.91213e-06, 9.42764e-06, 0, 0
    9100, 1.89779e-06, 7.71255e-06, 0, 0
    9200, 1.8739e-06, 7.74718e-06, 0, 0
    9300, 1.8582e-06, 7.62634e-06, 0, 0
    9400, 1.84846e-06, 2.30178e-05, 0, 0
    9500, 1.83317e-06, 7.00326e-06, 0, 0
    9600, 1.81794e-06, 7.6663e-06, 0, 0
    9700, 1.79817e-06, 5.54123e-06, 0, 0
    9800, 1.78233e-06, 2.14529e-05, 0, 0
    9900, 1.77352e-06, 5.75663e-06, 0, 0
    10000, 1.76144e-06, 7.34365e-06, 0, 0
    10100, 1.74946e-06, 7.90147e-06, 0, 0
    10200, 1.72877e-06, 5.2366e-06, 0, 0
    10300, 1.71967e-06, 5.2792e-06, 0, 0
    10400, 1.7025e-06, 5.24576e-06, 0, 0
    10500, 1.69175e-06, 7.06283e-06, 0, 0
    10600, 1.67746e-06, 5.09418e-06, 0, 0
    10700, 1.67401e-06, 9.80729e-06, 0, 0
    10800, 1.65994e-06, 9.81024e-06, 0, 0
    10900, 1.64096e-06, 4.84968e-06, 0, 0
    11000, 1.6331e-06, 5.04283e-06, 0, 0
    11100, 1.62029e-06, 4.89233e-06, 0, 0
    11200, 1.60579e-06, 4.68112e-06, 0, 0
    11300, 1.5982e-06, 4.73282e-06, 0, 0
    11400, 1.58679e-06, 4.7937e-06, 0, 0
    11500, 1.58076e-06, 4.94032e-06, 0, 0
    11600, 1.56853e-06, 4.74572e-06, 0, 0
    11700, 1.56145e-06, 6.8563e-06, 0, 0
    11800, 1.54447e-06, 4.43023e-06, 0, 0
    11900, 1.53554e-06, 4.48513e-06, 0, 0
    12000, 1.52963e-06, 6.33722e-06, 0, 0
    12100, 1.51863e-06, 6.65359e-06, 0, 0
    12200, 1.50323e-06, 4.25713e-06, 0, 0
    12300, 1.49729e-06, 4.5323e-06, 0, 0
    12400, 1.48885e-06, 4.54318e-06, 0, 0
    12500, 1.48075e-06, 6.00343e-06, 0, 0
    12600, 1.4637e-06, 4.17041e-06, 0, 0
    12700, 1.45903e-06, 4.16283e-06, 0, 0
    12800, 1.45181e-06, 4.18104e-06, 0, 0
    12900, 1.44012e-06, 2.03904e-05, 0, 0
    13000, 1.43013e-06, 4.21257e-06, 0, 0
    13100, 1.42767e-06, 4.03951e-06, 0, 0
    13200, 1.46247e-06, 1.26261e-05, 0, 0
    13300, 1.41119e-06, 4.0121e-06, 0, 0
    13400, 1.40199e-06, 3.90656e-06, 0, 0
    13500, 1.39684e-06, 3.89872e-06, 0, 0
    13600, 1.39459e-06, 4.17498e-06, 0, 0
    13700, 1.38407e-06, 5.65927e-06, 0, 0
    13800, 1.37217e-06, 3.82585e-06, 0, 0
    13900, 1.36652e-06, 3.72984e-06, 0, 0
    14000, 1.36049e-06, 3.71896e-06, 0, 0
    14100, 1.35404e-06, 3.91909e-06, 0, 0
    14200, 1.35391e-06, 5.81676e-06, 0, 0
    14300, 1.34256e-06, 3.80392e-06, 0, 0
    14400, 1.32893e-06, 3.46748e-06, 0, 0
    14500, 1.32685e-06, 3.55682e-06, 0, 0
    14600, 1.3205e-06, 3.74961e-06, 0, 0
    14700, 1.31564e-06, 3.60179e-06, 0, 0
    14800, 1.30887e-06, 3.46811e-06, 0, 0
    14900, 1.30291e-06, 3.65278e-06, 0, 0
    15000, 1.29684e-06, 3.41793e-06, 0, 0
    15100, 1.29255e-06, 5.58085e-06, 0, 0
    15200, 1.28311e-06, 3.49387e-06, 0, 0
    15300, 1.27587e-06, 3.20097e-06, 0, 0
    15400, 1.27157e-06, 3.14166e-06, 0, 0
    15500, 1.26983e-06, 3.17732e-06, 0, 0
    15600, 1.26343e-06, 3.20217e-06, 0, 0
    15700, 1.25937e-06, 3.16464e-06, 0, 0
    15800, 1.25312e-06, 3.14081e-06, 0, 0
    15900, 1.24743e-06, 3.11865e-06, 0, 0
    16000, 1.24208e-06, 3.09586e-06, 0, 0
    16100, 1.23678e-06, 3.07266e-06, 0, 0
    16200, 1.23203e-06, 3.0549e-06, 0, 0
    16300, 1.22543e-06, 3.24718e-06, 0, 0
    16400, 1.22147e-06, 3.07088e-06, 0, 0
    16500, 1.21637e-06, 2.97981e-06, 0, 0
    16600, 1.21238e-06, 2.96012e-06, 0, 0
    16700, 1.20602e-06, 3.15895e-06, 0, 0
    16800, 1.20225e-06, 2.94533e-06, 0, 0
    16900, 1.19769e-06, 2.88269e-06, 0, 0
    17000, 1.19401e-06, 2.86556e-06, 0, 0
    17100, 1.18822e-06, 3.02545e-06, 0, 0
    17200, 1.18411e-06, 2.83103e-06, 0, 0
    17300, 1.18036e-06, 2.79413e-06, 0, 0
    17400, 1.17455e-06, 2.98936e-06, 0, 0
    17500, 1.17129e-06, 2.76125e-06, 0, 0
    17600, 1.16768e-06, 2.72558e-06, 0, 0
    17700, 1.16204e-06, 2.9189e-06, 0, 0
    17800, 1.1591e-06, 2.71046e-06, 0, 0
    17900, 1.15511e-06, 2.65312e-06, 0, 0
    18000, 1.15197e-06, 2.63808e-06, 0, 0
    18100, 1.14664e-06, 2.79151e-06, 0, 0
    18200, 1.14331e-06, 2.60486e-06, 0, 0
    18300, 1.13973e-06, 2.56809e-06, 0, 0
    18400, 1.13691e-06, 2.55287e-06, 0, 0
    18500, 1.13223e-06, 2.65829e-06, 0, 0
    18600, 1.1287e-06, 2.51022e-06, 0, 0
    18700, 1.12577e-06, 2.48658e-06, 0, 0
    18800, 1.12325e-06, 3.74847e-06, 0, 0
    18900, 1.11869e-06, 2.53239e-06, 0, 0
    19000, 1.1154e-06, 2.45116e-06, 0, 0
    19100, 1.11221e-06, 2.41461e-06, 0, 0
    19200, 1.10906e-06, 2.39503e-06, 0, 0
    19300, 1.10592e-06, 2.37561e-06, 0, 0
    19400, 1.10282e-06, 2.35636e-06, 0, 0
    19500, 1.09974e-06, 2.3373e-06, 0, 0
    19600, 1.09669e-06, 2.31842e-06, 0, 0
    19700, 1.09368e-06, 2.29973e-06, 0, 0
    19800, 1.09069e-06, 2.28121e-06, 0, 0
    19900, 1.08774e-06, 2.33041e-06, 0, 0
--> FOAM Warning : Max iterations reached within momentum loop
Max sigmaEq (von Mises stress) = 290462
ExecutionTime = 69.91 s  ClockTime = 70 s

Jacobian determinant max. 1.00084 min. 0.999179

Time = 5

Evolving solid solver
Solving the total Lagrangian form of the momentum equation for DD
    Corr, res, relRes, matRes, iters
    100, 7.87524e-05, 0.00386939, 0, 0
    200, 8.87164e-05, 0.00600433, 0, 0
    300, 4.81005e-05, 0.00445598, 0, 0
    400, 4.29719e-05, 0.00318325, 0, 0
    500, 2.94544e-05, 0.00128356, 0, 0
    600, 1.32566e-05, 0.000523006, 0, 0
    700, 9.2768e-06, 0.000549978, 0, 0
    800, 7.88541e-06, 0.000458089, 0, 0
    900, 7.17088e-06, 0.00029444, 0, 0
    1000, 6.78133e-06, 0.000424601, 0, 0
    1100, 6.50873e-06, 0.000255425, 0, 0
    1200, 6.48667e-06, 0.000255401, 0, 0
    1300, 6.29788e-06, 0.000455581, 0, 0
    1400, 6.15203e-06, 0.000285664, 0, 0
    1500, 5.80066e-06, 9.59009e-05, 0, 0
    1600, 5.65893e-06, 8.17736e-05, 0, 0
    1700, 5.45969e-06, 6.71912e-05, 0, 0
    1800, 5.34727e-06, 6.4864e-05, 0, 0
    1900, 5.24684e-06, 4.84912e-05, 0, 0
    2000, 5.17582e-06, 4.66589e-05, 0, 0
    2100, 5.07191e-06, 4.14694e-05, 0, 0
    2200, 5.01168e-06, 4.07643e-05, 0, 0
    2300, 4.92175e-06, 4.08979e-05, 0, 0
    2400, 4.84699e-06, 3.6225e-05, 0, 0
    2500, 4.75496e-06, 3.73614e-05, 0, 0
    2600, 4.67842e-06, 3.60742e-05, 0, 0
    2700, 4.59833e-06, 3.46504e-05, 0, 0
    2800, 4.52488e-06, 3.51085e-05, 0, 0
    2900, 4.44526e-06, 3.40314e-05, 0, 0
    3000, 4.3664e-06, 3.29697e-05, 0, 0
    3100, 4.28817e-06, 3.19552e-05, 0, 0
    3200, 4.21082e-06, 3.0984e-05, 0, 0
    3300, 4.15086e-06, 2.67075e-05, 0, 0
    3400, 4.07591e-06, 2.58722e-05, 0, 0
    3500, 3.9863e-06, 2.84067e-05, 0, 0
    3600, 3.91389e-06, 2.75839e-05, 0, 0
    3700, 3.84294e-06, 2.67976e-05, 0, 0
    3800, 3.78812e-06, 2.28472e-05, 0, 0
    3900, 3.72154e-06, 2.22435e-05, 0, 0
    4000, 3.6419e-06, 2.45391e-05, 0, 0
    4100, 3.58393e-06, 2.20548e-05, 0, 0
    4200, 3.54205e-06, 2.1544e-05, 0, 0
    4300, 3.48988e-06, 2.14596e-05, 0, 0
    4400, 3.39574e-06, 1.83439e-05, 0, 0
    4500, 3.35013e-06, 1.7741e-05, 0, 0
    4600, 3.33568e-06, 2.05563e-05, 0, 0
    4700, 3.24904e-06, 1.69935e-05, 0, 0
    4800, 3.20409e-06, 1.65169e-05, 0, 0
    4900, 3.17686e-06, 1.81014e-05, 0, 0
    5000, 3.1336e-06, 1.78739e-05, 0, 0
    5100, 3.08979e-06, 1.75523e-05, 0, 0
    5200, 3.0488e-06, 1.74769e-05, 0, 0
    5300, 3.00991e-06, 1.69555e-05, 0, 0
    5400, 2.95501e-06, 1.53804e-05, 0, 0
    5500, 2.93523e-06, 1.66275e-05, 0, 0
    5600, 2.89909e-06, 1.63743e-05, 0, 0
    5700, 2.86505e-06, 1.61746e-05, 0, 0
    5800, 2.83064e-06, 1.60069e-05, 0, 0
    5900, 2.79923e-06, 1.55254e-05, 0, 0
    6000, 2.76376e-06, 1.22995e-05, 0, 0
    6100, 2.72026e-06, 1.2068e-05, 0, 0
    6200, 2.68924e-06, 1.19032e-05, 0, 0
    6300, 2.67397e-06, 1.47575e-05, 0, 0
    6400, 2.64411e-06, 1.45095e-05, 0, 0
    6500, 2.59645e-06, 9.25027e-06, 0, 0
    6600, 2.57342e-06, 1.12084e-05, 0, 0
    6700, 2.5615e-06, 1.39309e-05, 0, 0
    6800, 2.53357e-06, 1.36596e-05, 0, 0
    6900, 2.50758e-06, 1.3591e-05, 0, 0
    7000, 2.47021e-06, 1.06781e-05, 0, 0
    7100, 2.44172e-06, 8.5747e-06, 0, 0
    7200, 2.41976e-06, 8.47292e-06, 0, 0
    7300, 2.39638e-06, 1.08127e-05, 0, 0
    7400, 2.37554e-06, 8.27203e-06, 0, 0
    7500, 2.35417e-06, 8.19835e-06, 0, 0
    7600, 2.33348e-06, 8.12196e-06, 0, 0
    7700, 2.31265e-06, 7.99787e-06, 0, 0
    7800, 2.29146e-06, 7.92102e-06, 0, 0
    7900, 2.28809e-06, 1.21111e-05, 0, 0
    8000, 2.25177e-06, 7.68569e-06, 0, 0
    8100, 2.23267e-06, 7.58615e-06, 0, 0
    8200, 2.21635e-06, 7.56192e-06, 0, 0
    8300, 2.2131e-06, 1.16818e-05, 0, 0
    8400, 2.19366e-06, 1.16016e-05, 0, 0
    8500, 2.15957e-06, 9.33053e-06, 0, 0
    8600, 2.16017e-06, 1.11325e-05, 0, 0
    8700, 2.12497e-06, 7.12471e-06, 0, 0
    8800, 2.10843e-06, 6.95737e-06, 0, 0
    8900, 2.09227e-06, 9.56409e-06, 0, 0
    9000, 2.07705e-06, 6.94663e-06, 0, 0
    9100, 2.06028e-06, 6.82312e-06, 0, 0
    9200, 2.04348e-06, 6.6731e-06, 0, 0
    9300, 2.04344e-06, 1.04885e-05, 0, 0
    9400, 2.01447e-06, 6.50316e-06, 0, 0
    9500, 1.99973e-06, 6.41363e-06, 0, 0
    9600, 1.98554e-06, 6.39757e-06, 0, 0
    9700, 1.97119e-06, 6.31891e-06, 0, 0
    9800, 1.95696e-06, 6.2402e-06, 0, 0
    9900, 1.9427e-06, 6.16885e-06, 0, 0
    10000, 1.92869e-06, 6.0819e-06, 0, 0
    10100, 1.91755e-06, 5.9042e-06, 0, 0
    10200, 1.91147e-06, 9.2484e-06, 0, 0
    10300, 1.88952e-06, 5.85657e-06, 0, 0
    10400, 1.87554e-06, 5.67969e-06, 0, 0
    10500, 1.864e-06, 5.68037e-06, 0, 0
    10600, 1.85281e-06, 5.63696e-06, 0, 0
    10700, 1.8529e-06, 9.01957e-06, 0, 0
    10800, 1.82743e-06, 5.45668e-06, 0, 0
    10900, 1.81541e-06, 5.30987e-06, 0, 0
    11000, 1.80393e-06, 5.43687e-06, 0, 0
    11100, 1.79435e-06, 9.36301e-06, 0, 0
    11200, 1.77853e-06, 8.01551e-06, 0, 0
    11300, 1.7703e-06, 5.24065e-06, 0, 0
    11400, 1.7608e-06, 9.14088e-06, 0, 0
    11500, 1.7494e-06, 8.52424e-06, 0, 0
    11600, 1.73905e-06, 4.94133e-06, 0, 0
    11700, 1.72684e-06, 4.83631e-06, 0, 0
    11800, 1.71684e-06, 4.98601e-06, 0, 0
    11900, 1.708e-06, 4.66489e-06, 0, 0
    12000, 1.69727e-06, 4.79198e-06, 0, 0
    12100, 1.6856e-06, 4.65133e-06, 0, 0
    12200, 1.67979e-06, 7.07691e-06, 0, 0
    12300, 1.66654e-06, 4.72258e-06, 0, 0
    12400, 1.65662e-06, 4.52878e-06, 0, 0
    12500, 1.64905e-06, 4.35708e-06, 0, 0
    12600, 1.6357e-06, 7.34376e-06, 0, 0
    12700, 1.62891e-06, 4.49234e-06, 0, 0
    12800, 1.62197e-06, 4.24262e-06, 0, 0
    12900, 1.61599e-06, 6.54378e-06, 0, 0
    13000, 1.60301e-06, 4.34249e-06, 0, 0
    13100, 1.59294e-06, 4.33047e-06, 0, 0
    13200, 1.58648e-06, 4.16686e-06, 0, 0
    13300, 1.57839e-06, 4.03878e-06, 0, 0
    13400, 1.57e-06, 3.92307e-06, 0, 0
    13500, 1.56211e-06, 3.81406e-06, 0, 0
    13600, 1.55418e-06, 3.75115e-06, 0, 0
    13700, 1.54609e-06, 3.7066e-06, 0, 0
    13800, 1.53824e-06, 3.65485e-06, 0, 0
    13900, 1.53051e-06, 3.61077e-06, 0, 0
    14000, 1.52119e-06, 3.7693e-06, 0, 0
    14100, 1.51483e-06, 3.70987e-06, 0, 0
    14200, 1.50509e-06, 3.67703e-06, 0, 0
    14300, 1.50146e-06, 3.45476e-06, 0, 0
    14400, 1.4943e-06, 3.43765e-06, 0, 0
    14500, 1.48514e-06, 3.62578e-06, 0, 0
    14600, 1.47838e-06, 3.43849e-06, 0, 0
    14700, 1.47475e-06, 3.30515e-06, 0, 0
    14800, 1.46808e-06, 3.30302e-06, 0, 0
    14900, 1.45814e-06, 3.53815e-06, 0, 0
    15000, 1.45396e-06, 3.21195e-06, 0, 0
    15100, 1.44984e-06, 3.20647e-06, 0, 0
    15200, 1.44304e-06, 3.22716e-06, 0, 0
    15300, 1.43548e-06, 3.43524e-06, 0, 0
    15400, 1.43203e-06, 3.14274e-06, 0, 0
    15500, 1.42613e-06, 3.12938e-06, 0, 0
    15600, 1.41755e-06, 3.22936e-06, 0, 0
    15700, 1.41126e-06, 6.58495e-06, 0, 0
    15800, 1.4095e-06, 3.07458e-06, 0, 0
    15900, 1.40238e-06, 3.0771e-06, 0, 0
    16000, 1.39617e-06, 3.0785e-06, 0, 0
    16100, 1.39211e-06, 2.98233e-06, 0, 0
    16200, 1.38735e-06, 2.96351e-06, 0, 0
    16300, 1.38045e-06, 2.99603e-06, 0, 0
    16400, 1.37558e-06, 2.95399e-06, 0, 0
    16500, 1.37076e-06, 2.88351e-06, 0, 0
    16600, 1.36582e-06, 2.86358e-06, 0, 0
    16700, 1.36082e-06, 2.84965e-06, 0, 0
    16800, 1.35596e-06, 2.83786e-06, 0, 0
    16900, 1.35111e-06, 2.82124e-06, 0, 0
    17000, 1.34618e-06, 2.79648e-06, 0, 0
    17100, 1.34135e-06, 2.78272e-06, 0, 0
    17200, 1.33629e-06, 2.82059e-06, 0, 0
    17300, 1.33123e-06, 2.8467e-06, 0, 0
    17400, 1.32531e-06, 6.1849e-06, 0, 0
    17500, 1.3243e-06, 2.74127e-06, 0, 0
    17600, 1.31951e-06, 2.73285e-06, 0, 0
    17700, 1.31439e-06, 2.68259e-06, 0, 0
    17800, 1.30899e-06, 2.75465e-06, 0, 0
    17900, 1.30679e-06, 2.67734e-06, 0, 0
    18000, 1.30158e-06, 2.64857e-06, 0, 0
    18100, 1.29844e-06, 4.53789e-06, 0, 0
    18200, 1.29545e-06, 2.63494e-06, 0, 0
    18300, 1.29277e-06, 2.62779e-06, 0, 0
    18400, 1.29062e-06, 2.60613e-06, 0, 0
    18500, 1.28774e-06, 2.60008e-06, 0, 0
    18600, 1.28521e-06, 2.58941e-06, 0, 0
    18700, 1.28276e-06, 2.57955e-06, 0, 0
    18800, 1.28038e-06, 2.56829e-06, 0, 0
    18900, 1.27853e-06, 2.59565e-06, 0, 0
    19000, 1.2754e-06, 2.54664e-06, 0, 0
    19100, 1.27304e-06, 2.56309e-06, 0, 0
    19200, 1.27067e-06, 2.52126e-06, 0, 0
    19300, 1.26858e-06, 2.54781e-06, 0, 0
    19400, 1.26582e-06, 2.53055e-06, 0, 0
    19500, 1.26357e-06, 2.49643e-06, 0, 0
    19600, 1.26108e-06, 2.51333e-06, 0, 0
    19700, 1.25885e-06, 2.47099e-06, 0, 0
    19800, 1.25649e-06, 2.48856e-06, 0, 0
    19900, 1.25424e-06, 2.48489e-06, 0, 0
--> FOAM Warning : Max iterations reached within momentum loop
Max sigmaEq (von Mises stress) = 351345
ExecutionTime = 86.89 s  ClockTime = 87 s

Jacobian determinant max. 1.00129 min. 0.999069

Time = 6

Evolving solid solver
Solving the total Lagrangian form of the momentum equation for DD
    Corr, res, relRes, matRes, iters
    100, 9.68957e-05, 0.00353394, 0, 0
    200, 9.80231e-05, 0.00410736, 0, 0
    300, 6.74314e-05, 0.00336774, 0, 0
    400, 4.57134e-05, 0.00143927, 0, 0
    500, 3.75728e-05, 0.0016878, 0, 0
    600, 2.52246e-05, 0.000390607, 0, 0
    700, 1.52568e-05, 0.000273852, 0, 0
    800, 1.29747e-05, 0.000170431, 0, 0
    900, 1.17743e-05, 0.00017644, 0, 0
    1000, 1.06868e-05, 0.000138608, 0, 0
    1100, 1.02849e-05, 0.000172575, 0, 0
    1200, 1.01699e-05, 0.000143428, 0, 0
    1300, 9.95577e-06, 0.000114624, 0, 0
    1400, 9.87361e-06, 0.000112342, 0, 0
    1500, 9.80352e-06, 0.000124071, 0, 0
    1600, 9.79274e-06, 0.000102101, 0, 0
    1700, 9.79769e-06, 0.000101595, 0, 0
    1800, 9.5446e-06, 8.00553e-05, 0, 0
    1900, 9.25866e-06, 0.000178727, 0, 0
    2000, 9.01508e-06, 7.43723e-05, 0, 0
    2100, 9.02364e-06, 8.85645e-05, 0, 0
    2200, 8.62581e-06, 7.03159e-05, 0, 0
    2300, 8.41312e-06, 0.00015348, 0, 0
    2400, 8.30346e-06, 6.65328e-05, 0, 0
    2500, 8.43091e-06, 9.10501e-05, 0, 0
    2600, 8.0261e-06, 0.000119667, 0, 0
    2700, 7.96038e-06, 5.87892e-05, 0, 0
    2800, 7.89688e-06, 6.01172e-05, 0, 0
    2900, 7.77613e-06, 5.74457e-05, 0, 0
    3000, 7.69393e-06, 5.35188e-05, 0, 0
    3100, 7.58049e-06, 4.71954e-05, 0, 0
    3200, 7.49202e-06, 4.87556e-05, 0, 0
    3300, 7.40425e-06, 4.92626e-05, 0, 0
    3400, 7.33212e-06, 5.19874e-05, 0, 0
    3500, 7.24977e-06, 5.15059e-05, 0, 0
    3600, 7.11771e-06, 4.43331e-05, 0, 0
    3700, 7.02518e-06, 4.15858e-05, 0, 0
    3800, 6.93379e-06, 3.99938e-05, 0, 0
    3900, 6.84611e-06, 3.97738e-05, 0, 0
    4000, 6.79451e-06, 3.88337e-05, 0, 0
    4100, 6.71321e-06, 4.49753e-05, 0, 0
    4200, 6.62991e-06, 4.35936e-05, 0, 0
    4300, 6.54668e-06, 4.15799e-05, 0, 0
    4400, 6.44628e-06, 3.87292e-05, 0, 0
    4500, 6.34776e-06, 3.39256e-05, 0, 0
    4600, 6.26078e-06, 3.67253e-05, 0, 0
    4700, 6.194e-06, 3.4907e-05, 0, 0
    4800, 6.11099e-06, 3.39985e-05, 0, 0
    4900, 6.03126e-06, 3.28225e-05, 0, 0
    5000, 5.96617e-06, 3.58099e-05, 0, 0
    5100, 5.87326e-06, 8.94068e-05, 0, 0
    5200, 5.82903e-06, 3.36502e-05, 0, 0
    5300, 5.74067e-06, 8.83131e-05, 0, 0
    5400, 5.68311e-06, 3.57651e-05, 0, 0
    5500, 5.60625e-06, 2.95916e-05, 0, 0
    5600, 5.54365e-06, 2.88564e-05, 0, 0
    5700, 5.48532e-06, 3.19165e-05, 0, 0
    5800, 5.56032e-06, 5.67962e-05, 0, 0
    5900, 5.36128e-06, 2.82945e-05, 0, 0
    6000, 5.29026e-06, 2.6332e-05, 0, 0
    6100, 5.23069e-06, 2.70222e-05, 0, 0
    6200, 5.17785e-06, 2.72309e-05, 0, 0
    6300, 5.11966e-06, 2.59426e-05, 0, 0
    6400, 5.07089e-06, 2.7827e-05, 0, 0
    6500, 5.00598e-06, 2.55708e-05, 0, 0
    6600, 4.97289e-06, 2.67903e-05, 0, 0
    6700, 4.90842e-06, 2.46735e-05, 0, 0
    6800, 4.85688e-06, 2.67262e-05, 0, 0
    6900, 4.80694e-06, 2.39499e-05, 0, 0
    7000, 4.76439e-06, 2.52034e-05, 0, 0
    7100, 4.71419e-06, 2.31163e-05, 0, 0
    7200, 4.66007e-06, 2.30479e-05, 0, 0
    7300, 4.62442e-06, 2.26531e-05, 0, 0
    7400, 4.67592e-06, 4.54152e-05, 0, 0
    7500, 4.54442e-06, 2.41784e-05, 0, 0
    7600, 4.47291e-06, 2.27207e-05, 0, 0
    7700, 4.44584e-06, 2.19834e-05, 0, 0
    7800, 4.40903e-06, 2.13471e-05, 0, 0
    7900, 4.34539e-06, 1.57544e-05, 0, 0
    8000, 4.30948e-06, 2.23058e-05, 0, 0
    8100, 4.2798e-06, 1.58642e-05, 0, 0
    8200, 4.33896e-06, 4.97171e-05, 0, 0
    8300, 4.20859e-06, 2.07971e-05, 0, 0
    8400, 4.16151e-06, 2.17789e-05, 0, 0
    8500, 4.10486e-06, 2.02186e-05, 0, 0
    8600, 4.09908e-06, 2.02688e-05, 0, 0
    8700, 4.04769e-06, 5.85778e-05, 0, 0
    8800, 3.99173e-06, 1.46018e-05, 0, 0
    8900, 3.96508e-06, 1.983e-05, 0, 0
    9000, 3.92408e-06, 1.43186e-05, 0, 0
    9100, 3.89238e-06, 1.37986e-05, 0, 0
    9200, 3.8757e-06, 1.86915e-05, 0, 0
    9300, 3.81627e-06, 1.37457e-05, 0, 0
    9400, 3.82519e-06, 2.13358e-05, 0, 0
    9500, 3.76931e-06, 1.35486e-05, 0, 0
    9600, 3.74232e-06, 1.85157e-05, 0, 0
    9700, 3.70916e-06, 1.80744e-05, 0, 0
    9800, 3.68514e-06, 1.73041e-05, 0, 0
    9900, 3.65775e-06, 1.63389e-05, 0, 0
    10000, 3.62601e-06, 1.25597e-05, 0, 0
    10100, 3.59289e-06, 1.29644e-05, 0, 0
    10200, 3.57963e-06, 1.64393e-05, 0, 0
    10300, 3.54832e-06, 1.81301e-05, 0, 0
    10400, 3.49019e-06, 5.85815e-05, 0, 0
    10500, 3.46348e-06, 1.23051e-05, 0, 0
    10600, 3.44482e-06, 1.21468e-05, 0, 0
    10700, 3.4325e-06, 1.62525e-05, 0, 0
    10800, 3.41289e-06, 1.48891e-05, 0, 0
    10900, 3.37765e-06, 1.23302e-05, 0, 0
    11000, 3.36058e-06, 1.79775e-05, 0, 0
    11100, 3.40808e-06, 4.24291e-05, 0, 0
    11200, 3.29413e-06, 1.15438e-05, 0, 0
    11300, 3.28025e-06, 1.1492e-05, 0, 0
    11400, 3.2744e-06, 1.4145e-05, 0, 0
    11500, 3.23284e-06, 1.63835e-05, 0, 0
    11600, 3.22074e-06, 1.6186e-05, 0, 0
    11700, 3.17871e-06, 1.10462e-05, 0, 0
    11800, 3.16776e-06, 1.08725e-05, 0, 0
    11900, 3.14105e-06, 1.08813e-05, 0, 0
    12000, 3.13977e-06, 1.40227e-05, 0, 0
    12100, 3.17931e-06, 3.10785e-05, 0, 0
    12200, 3.07381e-06, 1.06258e-05, 0, 0
    12300, 3.06436e-06, 1.04781e-05, 0, 0
    12400, 3.0429e-06, 1.0207e-05, 0, 0
    12500, 3.03037e-06, 1.58721e-05, 0, 0
    12600, 2.99525e-06, 1.02416e-05, 0, 0
    12700, 2.9889e-06, 1.55412e-05, 0, 0
    12800, 2.96622e-06, 1.00481e-05, 0, 0
    12900, 2.95753e-06, 1.39749e-05, 0, 0
    13000, 2.9246e-06, 9.83799e-06, 0, 0
    13100, 2.92041e-06, 1.23006e-05, 0, 0
    13200, 2.90108e-06, 1.27443e-05, 0, 0
    13300, 2.868e-06, 9.51759e-06, 0, 0
    13400, 2.85218e-06, 9.5636e-06, 0, 0
    13500, 2.85638e-06, 1.23686e-05, 0, 0
    13600, 2.82708e-06, 1.47708e-05, 0, 0
    13700, 2.80333e-06, 9.25839e-06, 0, 0
    13800, 2.79445e-06, 1.2154e-05, 0, 0
    13900, 2.76244e-06, 9.17868e-06, 0, 0
    14000, 2.74971e-06, 9.02011e-06, 0, 0
    14100, 2.74582e-06, 1.21557e-05, 0, 0
    14200, 2.71639e-06, 9.0329e-06, 0, 0
    14300, 2.70294e-06, 8.85594e-06, 0, 0
    14400, 2.6957e-06, 1.15745e-05, 0, 0
    14500, 2.67102e-06, 8.81367e-06, 0, 0
    14600, 2.65823e-06, 8.62522e-06, 0, 0
    14700, 2.64865e-06, 8.52408e-06, 0, 0
    14800, 2.63712e-06, 1.09716e-05, 0, 0
    14900, 2.61308e-06, 8.38046e-06, 0, 0
    15000, 2.59934e-06, 8.17727e-06, 0, 0
    15100, 2.58776e-06, 8.26644e-06, 0, 0
    15200, 2.58025e-06, 1.30379e-05, 0, 0
    15300, 2.5587e-06, 8.26948e-06, 0, 0
    15400, 2.54428e-06, 7.99283e-06, 0, 0
    15500, 2.53474e-06, 7.88766e-06, 0, 0
    15600, 2.52049e-06, 8.04745e-06, 0, 0
    15700, 2.50987e-06, 7.92815e-06, 0, 0
    15800, 2.50966e-06, 1.15015e-05, 0, 0
    15900, 2.48987e-06, 1.21858e-05, 0, 0
    16000, 2.47045e-06, 7.83448e-06, 0, 0
    16100, 2.46344e-06, 9.98614e-06, 0, 0
    16200, 2.44494e-06, 7.70692e-06, 0, 0
    16300, 2.43209e-06, 7.44197e-06, 0, 0
    16400, 2.42175e-06, 7.57831e-06, 0, 0
    16500, 2.41242e-06, 7.44251e-06, 0, 0
    16600, 2.45072e-06, 2.74872e-05, 0, 0
    16700, 2.3879e-06, 7.43091e-06, 0, 0
    16800, 2.38109e-06, 9.56066e-06, 0, 0
    16900, 2.36372e-06, 7.30398e-06, 0, 0
    17000, 2.35105e-06, 7.06874e-06, 0, 0
    17100, 2.34509e-06, 7.11843e-06, 0, 0
    17200, 2.33125e-06, 7.15828e-06, 0, 0
    17300, 2.32061e-06, 7.09609e-06, 0, 0
    17400, 2.31246e-06, 7.00922e-06, 0, 0
    17500, 2.30121e-06, 6.87742e-06, 0, 0
    17600, 2.29514e-06, 9.55212e-06, 0, 0
    17700, 2.28006e-06, 6.88393e-06, 0, 0
    17800, 2.27171e-06, 6.8124e-06, 0, 0
    17900, 2.31265e-06, 2.39899e-05, 0, 0
    18000, 2.24832e-06, 6.73054e-06, 0, 0
    18100, 2.23577e-06, 6.5115e-06, 0, 0
    18200, 2.22992e-06, 6.52296e-06, 0, 0
    18300, 2.21853e-06, 6.60213e-06, 0, 0
    18400, 2.20815e-06, 6.51847e-06, 0, 0
    18500, 2.20483e-06, 6.57928e-06, 0, 0
    18600, 2.18926e-06, 6.30275e-06, 0, 0
    18700, 2.18913e-06, 8.65682e-06, 0, 0
    18800, 2.17145e-06, 6.29898e-06, 0, 0
    18900, 2.16154e-06, 6.28477e-06, 0, 0
    19000, 2.15214e-06, 6.22899e-06, 0, 0
    19100, 2.14394e-06, 6.20733e-06, 0, 0
    19200, 2.13461e-06, 6.14466e-06, 0, 0
    19300, 2.12606e-06, 6.12054e-06, 0, 0
    19400, 2.11732e-06, 6.05598e-06, 0, 0
    19500, 2.1083e-06, 6.02758e-06, 0, 0
    19600, 2.10016e-06, 5.96742e-06, 0, 0
    19700, 2.09258e-06, 5.96899e-06, 0, 0
    19800, 2.0835e-06, 5.88517e-06, 0, 0
    19900, 2.07742e-06, 5.83308e-06, 0, 0
--> FOAM Warning : Max iterations reached within momentum loop
Max sigmaEq (von Mises stress) = 411418
ExecutionTime = 104.15 s  ClockTime = 104 s

Jacobian determinant max. 1.00182 min. 0.999039

Time = 7

Evolving solid solver
Solving the total Lagrangian form of the momentum equation for DD
    Corr, res, relRes, matRes, iters
    100, 0.000104157, 0.00663686, 0, 0
    200, 7.08996e-05, 0.00174409, 0, 0
    300, 5.4293e-05, 0.00209908, 0, 0
    400, 3.64009e-05, 0.00178863, 0, 0
    500, 3.09367e-05, 0.00196808, 0, 0
    600, 1.92058e-05, 0.000424666, 0, 0
    700, 1.6287e-05, 0.00023971, 0, 0
    800, 1.5379e-05, 0.000246473, 0, 0
    900, 1.48754e-05, 0.000232995, 0, 0
    1000, 1.44391e-05, 0.000219321, 0, 0
    1100, 1.40169e-05, 0.000206819, 0, 0
    1200, 1.36127e-05, 0.000195364, 0, 0
    1300, 1.32258e-05, 0.000184849, 0, 0
    1400, 1.28384e-05, 0.000175202, 0, 0
    1500, 1.24666e-05, 0.000166344, 0, 0
    1600, 1.21074e-05, 0.000158197, 0, 0
    1700, 1.17609e-05, 0.000150692, 0, 0
    1800, 1.14588e-05, 0.000144635, 0, 0
    1900, 1.09533e-05, 8.57203e-05, 0, 0
    2000, 1.0089e-05, 7.346e-05, 0, 0
    2100, 9.35724e-06, 6.29875e-05, 0, 0
    2200, 8.73e-06, 5.47962e-05, 0, 0
    2300, 8.21507e-06, 4.91111e-05, 0, 0
    2400, 7.79316e-06, 4.69096e-05, 0, 0
    2500, 7.49401e-06, 4.49216e-05, 0, 0
    2600, 7.29218e-06, 4.32461e-05, 0, 0
    2700, 7.09492e-06, 4.44427e-05, 0, 0
    2800, 6.90615e-06, 4.25744e-05, 0, 0
    2900, 6.74064e-06, 4.32846e-05, 0, 0
    3000, 6.57172e-06, 3.70711e-05, 0, 0
    3100, 6.41129e-06, 3.82729e-05, 0, 0
    3200, 6.29927e-06, 3.68103e-05, 0, 0
    3300, 6.1774e-06, 3.54338e-05, 0, 0
    3400, 6.03709e-06, 3.40797e-05, 0, 0
    3500, 5.8981e-06, 3.0604e-05, 0, 0
    3600, 5.82249e-06, 3.09836e-05, 0, 0
    3700, 5.72852e-06, 3.28604e-05, 0, 0
    3800, 5.62565e-06, 3.08749e-05, 0, 0
    3900, 5.53448e-06, 2.74342e-05, 0, 0
    4000, 5.44649e-06, 2.89135e-05, 0, 0
    4100, 5.37014e-06, 2.83852e-05, 0, 0
    4200, 5.28011e-06, 2.76071e-05, 0, 0
    4300, 5.19295e-06, 2.5925e-05, 0, 0
    4400, 5.11017e-06, 2.48492e-05, 0, 0
    4500, 5.033e-06, 2.39514e-05, 0, 0
    4600, 4.95832e-06, 2.30719e-05, 0, 0
    4700, 4.88512e-06, 2.22358e-05, 0, 0
    4800, 4.81329e-06, 2.14328e-05, 0, 0
    4900, 4.7429e-06, 2.06634e-05, 0, 0
    5000, 4.67489e-06, 1.99254e-05, 0, 0
    5100, 4.60855e-06, 1.92005e-05, 0, 0
    5200, 4.553e-06, 1.78293e-05, 0, 0
    5300, 4.48634e-06, 1.94679e-05, 0, 0
    5400, 4.42041e-06, 1.77152e-05, 0, 0
    5500, 4.33254e-06, 1.85343e-05, 0, 0
    5600, 4.27018e-06, 1.91792e-05, 0, 0
    5700, 4.21362e-06, 1.39522e-05, 0, 0
    5800, 4.15617e-06, 1.82669e-05, 0, 0
    5900, 4.09405e-06, 1.74961e-05, 0, 0
    6000, 4.04448e-06, 1.92565e-05, 0, 0
    6100, 3.98923e-06, 1.32387e-05, 0, 0
    6200, 3.93696e-06, 1.89051e-05, 0, 0
    6300, 3.88434e-06, 1.29355e-05, 0, 0
    6400, 3.86532e-06, 1.58619e-05, 0, 0
    6500, 3.78427e-06, 1.28123e-05, 0, 0
    6600, 3.72732e-06, 1.69071e-05, 0, 0
    6700, 3.72306e-06, 1.53047e-05, 0, 0
    6800, 3.64779e-06, 1.22923e-05, 0, 0
    6900, 3.60494e-06, 1.18854e-05, 0, 0
    7000, 3.59029e-06, 1.45005e-05, 0, 0
    7100, 3.51841e-06, 1.18376e-05, 0, 0
    7200, 3.47826e-06, 1.14296e-05, 0, 0
    7300, 3.46287e-06, 1.37527e-05, 0, 0
    7400, 3.42522e-06, 1.39467e-05, 0, 0
    7500, 3.35861e-06, 1.12214e-05, 0, 0
    7600, 3.33484e-06, 1.10274e-05, 0, 0
    7700, 3.31003e-06, 1.33352e-05, 0, 0
    7800, 3.24686e-06, 1.06956e-05, 0, 0
    7900, 3.21108e-06, 3.51329e-05, 0, 0
    8000, 3.17104e-06, 1.0585e-05, 0, 0
    8100, 3.15869e-06, 1.09624e-05, 0, 0
    8200, 3.11189e-06, 3.30242e-05, 0, 0
    8300, 3.13345e-06, 2.40573e-05, 0, 0
    8400, 3.05711e-06, 9.86092e-06, 0, 0
    8500, 3.01765e-06, 1.83499e-05, 0, 0
    8600, 3.04024e-06, 2.27605e-05, 0, 0
    8700, 2.95515e-06, 9.99845e-06, 0, 0
    8800, 2.93123e-06, 1.08063e-05, 0, 0
    8900, 2.89076e-06, 9.49135e-06, 0, 0
    9000, 2.8656e-06, 9.06246e-06, 0, 0
    9100, 2.83747e-06, 8.99376e-06, 0, 0
    9200, 2.81822e-06, 1.09232e-05, 0, 0
    9300, 2.78198e-06, 9.14109e-06, 0, 0
    9400, 2.75086e-06, 8.55268e-06, 0, 0
    9500, 2.73236e-06, 9.06325e-06, 0, 0
    9600, 2.71589e-06, 1.06926e-05, 0, 0
    9700, 2.68385e-06, 8.84884e-06, 0, 0
    9800, 2.65388e-06, 8.45847e-06, 0, 0
    9900, 2.64342e-06, 8.78954e-06, 0, 0
    10000, 2.61486e-06, 1.00893e-05, 0, 0
    10100, 2.58436e-06, 8.27837e-06, 0, 0
    10200, 2.57024e-06, 8.45898e-06, 0, 0
    10300, 2.54138e-06, 8.04448e-06, 0, 0
    10400, 2.51654e-06, 7.9983e-06, 0, 0
    10500, 2.49488e-06, 7.97964e-06, 0, 0
    10600, 2.49309e-06, 7.10938e-06, 0, 0
    10700, 2.45794e-06, 9.03437e-06, 0, 0
    10800, 2.43374e-06, 7.68551e-06, 0, 0
    10900, 2.41213e-06, 7.74411e-06, 0, 0
    11000, 2.40349e-06, 7.37044e-06, 0, 0
    11100, 2.37667e-06, 7.49449e-06, 0, 0
    11200, 2.35786e-06, 7.42702e-06, 0, 0
    11300, 2.33602e-06, 5.41023e-06, 0, 0
    11400, 2.31576e-06, 5.36651e-06, 0, 0
    11500, 2.30435e-06, 7.42129e-06, 0, 0
    11600, 2.28108e-06, 7.12105e-06, 0, 0
    11700, 2.2613e-06, 5.31874e-06, 0, 0
    11800, 2.28834e-06, 1.73035e-05, 0, 0
    11900, 2.2345e-06, 7.23892e-06, 0, 0
    12000, 2.21525e-06, 5.08067e-06, 0, 0
    12100, 2.20688e-06, 2.07872e-05, 0, 0
    12200, 2.1794e-06, 6.95435e-06, 0, 0
    12300, 2.17179e-06, 2.36864e-05, 0, 0
    12400, 2.14623e-06, 6.48451e-06, 0, 0
    12500, 2.13638e-06, 4.90677e-06, 0, 0
    12600, 2.12798e-06, 7.85182e-06, 0, 0
    12700, 2.09923e-06, 6.66329e-06, 0, 0
    12800, 2.08777e-06, 4.79851e-06, 0, 0
    12900, 2.07935e-06, 6.53384e-06, 0, 0
    13000, 2.06207e-06, 4.76102e-06, 0, 0
    13100, 2.04877e-06, 5.9957e-06, 0, 0
    13200, 2.03154e-06, 4.70124e-06, 0, 0
    13300, 2.02284e-06, 4.59668e-06, 0, 0
    13400, 2.00015e-06, 1.69658e-05, 0, 0
    13500, 1.99274e-06, 4.53119e-06, 0, 0
    13600, 1.98448e-06, 7.01829e-06, 0, 0
    13700, 1.96455e-06, 5.94537e-06, 0, 0
    13800, 1.95721e-06, 4.52451e-06, 0, 0
    13900, 1.94317e-06, 4.51903e-06, 0, 0
    14000, 1.9331e-06, 4.38881e-06, 0, 0
    14100, 1.91808e-06, 7.10461e-06, 0, 0
    14200, 1.90164e-06, 5.82435e-06, 0, 0
    14300, 1.89708e-06, 6.69372e-06, 0, 0
    14400, 1.88696e-06, 4.33218e-06, 0, 0
    14500, 1.87503e-06, 5.73239e-06, 0, 0
    14600, 1.86349e-06, 4.13428e-06, 0, 0
    14700, 1.85244e-06, 4.20699e-06, 0, 0
    14800, 1.84382e-06, 6.62846e-06, 0, 0
    14900, 1.8303e-06, 4.15622e-06, 0, 0
    15000, 1.82182e-06, 1.78149e-05, 0, 0
    15100, 1.81046e-06, 4.06355e-06, 0, 0
    15200, 1.79682e-06, 5.17963e-06, 0, 0
    15300, 1.78795e-06, 5.72155e-06, 0, 0
    15400, 1.77853e-06, 3.85459e-06, 0, 0
    15500, 1.76664e-06, 5.03196e-06, 0, 0
    15600, 1.7583e-06, 3.85853e-06, 0, 0
    15700, 1.75396e-06, 3.92221e-06, 0, 0
    15800, 1.7434e-06, 3.89384e-06, 0, 0
    15900, 1.73662e-06, 3.90587e-06, 0, 0
    16000, 1.72162e-06, 4.82817e-06, 0, 0
    16100, 1.70999e-06, 3.80322e-06, 0, 0
    16200, 1.70359e-06, 3.77463e-06, 0, 0
    16300, 1.69706e-06, 3.67958e-06, 0, 0
    16400, 1.68856e-06, 3.82924e-06, 0, 0
    16500, 1.6828e-06, 3.81479e-06, 0, 0
    16600, 1.67546e-06, 3.69423e-06, 0, 0
    16700, 1.66751e-06, 3.69955e-06, 0, 0
    16800, 1.65947e-06, 3.69664e-06, 0, 0
    16900, 1.64955e-06, 3.56157e-06, 0, 0
    17000, 1.67416e-06, 1.47115e-05, 0, 0
    17100, 1.62798e-06, 4.55311e-06, 0, 0
    17200, 1.6209e-06, 3.50387e-06, 0, 0
    17300, 1.61697e-06, 3.54682e-06, 0, 0
    17400, 1.61075e-06, 3.48806e-06, 0, 0
    17500, 1.60384e-06, 3.48744e-06, 0, 0
    17600, 1.59685e-06, 3.46891e-06, 0, 0
    17700, 1.58971e-06, 3.45991e-06, 0, 0
    17800, 1.58248e-06, 3.44539e-06, 0, 0
    17900, 1.57538e-06, 3.48042e-06, 0, 0
    18000, 1.56814e-06, 3.41816e-06, 0, 0
    18100, 1.56071e-06, 3.27695e-06, 0, 0
    18200, 1.55008e-06, 3.17883e-06, 0, 0
    18300, 1.54245e-06, 5.28308e-06, 0, 0
    18400, 1.53319e-06, 3.15126e-06, 0, 0
    18500, 1.52648e-06, 3.05346e-06, 0, 0
    18600, 1.52367e-06, 3.13383e-06, 0, 0
    18700, 1.5189e-06, 3.13627e-06, 0, 0
    18800, 1.51327e-06, 3.13905e-06, 0, 0
    18900, 1.50746e-06, 3.13071e-06, 0, 0
    19000, 1.50151e-06, 3.14852e-06, 0, 0
    19100, 1.49541e-06, 3.10663e-06, 0, 0
    19200, 1.4894e-06, 3.11395e-06, 0, 0
    19300, 1.48314e-06, 5.17959e-06, 0, 0
    19400, 1.47487e-06, 2.89535e-06, 0, 0
    19500, 1.46929e-06, 5.15577e-06, 0, 0
    19600, 1.46231e-06, 1.07344e-05, 0, 0
    19700, 1.45635e-06, 2.87911e-06, 0, 0
    19800, 1.45228e-06, 2.90031e-06, 0, 0
    19900, 1.44756e-06, 2.89842e-06, 0, 0
--> FOAM Warning : Max iterations reached within momentum loop
Max sigmaEq (von Mises stress) = 476898
ExecutionTime = 122.46 s  ClockTime = 122 s

Jacobian determinant max. 1.00121 min. 0.998807

Time = 8

Evolving solid solver
Solving the total Lagrangian form of the momentum equation for DD
    Corr, res, relRes, matRes, iters
    100, 9.65592e-05, 0.0122668, 0, 0
    200, 6.89382e-05, 0.00623006, 0, 0
    300, 3.56823e-05, 0.00246551, 0, 0
    400, 1.60597e-05, 0.000649216, 0, 0
    500, 8.48566e-06, 0.000727706, 0, 0
    600, 6.45478e-06, 0.000503826, 0, 0
    700, 5.64699e-06, 0.000385968, 0, 0
    800, 5.35179e-06, 0.000435911, 0, 0
    900, 5.28767e-06, 0.000330413, 0, 0
    1000, 5.34484e-06, 0.000310642, 0, 0
    1100, 5.17187e-06, 0.000313612, 0, 0
    1200, 5.19501e-06, 0.000270268, 0, 0
    1300, 5.01752e-06, 0.000170976, 0, 0
    1400, 4.65735e-06, 0.000102827, 0, 0
    1500, 4.48535e-06, 8.38872e-05, 0, 0
    1600, 4.34606e-06, 7.64634e-05, 0, 0
    1700, 4.25675e-06, 6.65582e-05, 0, 0
    1800, 4.20165e-06, 6.17815e-05, 0, 0
    1900, 4.14374e-06, 6.21257e-05, 0, 0
    2000, 4.10377e-06, 5.60085e-05, 0, 0
    2100, 4.05402e-06, 5.87851e-05, 0, 0
    2200, 4.00546e-06, 5.53253e-05, 0, 0
    2300, 3.96432e-06, 5.32752e-05, 0, 0
    2400, 3.92429e-06, 5.13451e-05, 0, 0
    2500, 3.88656e-06, 4.9615e-05, 0, 0
    2600, 3.84987e-06, 4.79069e-05, 0, 0
    2700, 3.8241e-06, 4.88537e-05, 0, 0
    2800, 3.78392e-06, 4.69651e-05, 0, 0
    2900, 3.74714e-06, 4.54577e-05, 0, 0
    3000, 3.71804e-06, 4.45666e-05, 0, 0
    3100, 3.69799e-06, 4.42698e-05, 0, 0
    3200, 3.67817e-06, 3.36458e-05, 0, 0
    3300, 3.63116e-06, 4.12601e-05, 0, 0
    3400, 3.61621e-06, 4.20555e-05, 0, 0
    3500, 3.58274e-06, 2.92783e-05, 0, 0
    3600, 3.54656e-06, 4.00666e-05, 0, 0
    3700, 3.52326e-06, 2.79613e-05, 0, 0
    3800, 3.50811e-06, 3.27495e-05, 0, 0
    3900, 3.46158e-06, 3.83035e-05, 0, 0
    4000, 3.4378e-06, 3.41158e-05, 0, 0
    4100, 3.41097e-06, 2.48556e-05, 0, 0
    4200, 3.38337e-06, 2.44145e-05, 0, 0
    4300, 3.35581e-06, 3.29712e-05, 0, 0
    4400, 3.33204e-06, 2.42859e-05, 0, 0
    4500, 3.30174e-06, 3.08201e-05, 0, 0
    4600, 3.27804e-06, 2.23111e-05, 0, 0
    4700, 3.25235e-06, 3.23663e-05, 0, 0
    4800, 3.22622e-06, 2.95455e-05, 0, 0
    4900, 3.2035e-06, 2.28218e-05, 0, 0
    5000, 3.17938e-06, 2.07035e-05, 0, 0
    5100, 3.15104e-06, 2.80679e-05, 0, 0
    5200, 3.12777e-06, 2.94814e-05, 0, 0
    5300, 3.1055e-06, 2.16489e-05, 0, 0
    5400, 3.07971e-06, 2.75361e-05, 0, 0
    5500, 3.05757e-06, 1.86208e-05, 0, 0
    5600, 3.03391e-06, 1.83851e-05, 0, 0
    5700, 3.01215e-06, 1.81518e-05, 0, 0
    5800, 2.98978e-06, 1.75959e-05, 0, 0
    5900, 2.96837e-06, 1.70496e-05, 0, 0
    6000, 2.94726e-06, 1.7147e-05, 0, 0
    6100, 2.92669e-06, 2.74689e-05, 0, 0
    6200, 2.90641e-06, 1.63665e-05, 0, 0
    6300, 2.8863e-06, 1.62161e-05, 0, 0
    6400, 2.8816e-06, 2.43114e-05, 0, 0
    6500, 2.84668e-06, 1.54505e-05, 0, 0
    6600, 2.82676e-06, 1.5392e-05, 0, 0
    6700, 2.82261e-06, 2.37962e-05, 0, 0
    6800, 2.7886e-06, 1.46786e-05, 0, 0
    6900, 2.76926e-06, 1.46192e-05, 0, 0
    7000, 2.76519e-06, 2.32937e-05, 0, 0
    7100, 2.73228e-06, 1.3953e-05, 0, 0
    7200, 2.71311e-06, 1.39504e-05, 0, 0
    7300, 2.69524e-06, 1.37786e-05, 0, 0
    7400, 2.67739e-06, 1.33077e-05, 0, 0
    7500, 2.67059e-06, 2.34596e-05, 0, 0
    7600, 2.64224e-06, 1.30485e-05, 0, 0
    7700, 2.62474e-06, 1.2784e-05, 0, 0
    7800, 2.61452e-06, 2.16298e-05, 0, 0
    7900, 2.59119e-06, 1.25418e-05, 0, 0
    8000, 2.5738e-06, 2.25915e-05, 0, 0
    8100, 2.55881e-06, 1.22021e-05, 0, 0
    8200, 2.54207e-06, 1.20557e-05, 0, 0
    8300, 2.52662e-06, 1.19125e-05, 0, 0
    8400, 2.52032e-06, 1.18471e-05, 0, 0
    8500, 2.49499e-06, 2.20626e-05, 0, 0
    8600, 2.48221e-06, 1.14342e-05, 0, 0
    8700, 2.46755e-06, 1.13257e-05, 0, 0
    8800, 2.45287e-06, 1.11559e-05, 0, 0
    8900, 2.43751e-06, 1.10269e-05, 0, 0
    9000, 2.4307e-06, 1.09331e-05, 0, 0
    9100, 2.40931e-06, 1.0886e-05, 0, 0
    9200, 2.39404e-06, 1.72375e-05, 0, 0
    9300, 2.3809e-06, 1.97812e-05, 0, 0
    9400, 2.36694e-06, 1.9648e-05, 0, 0
    9500, 2.35287e-06, 1.07235e-05, 0, 0
    9600, 2.33925e-06, 1.0241e-05, 0, 0
    9700, 2.32599e-06, 1.00779e-05, 0, 0
    9800, 2.31259e-06, 9.97226e-06, 0, 0
    9900, 2.29931e-06, 9.86228e-06, 0, 0
    10000, 2.28548e-06, 1.02167e-05, 0, 0
    10100, 2.27244e-06, 9.80474e-06, 0, 0
    10200, 2.26012e-06, 9.67936e-06, 0, 0
    10300, 2.24719e-06, 9.57827e-06, 0, 0
    10400, 2.24204e-06, 1.97165e-05, 0, 0
    10500, 2.23118e-06, 1.82871e-05, 0, 0
    10600, 2.21412e-06, 9.24155e-06, 0, 0
    10700, 2.19843e-06, 9.65442e-06, 0, 0
    10800, 2.18672e-06, 9.47068e-06, 0, 0
    10900, 2.17668e-06, 1.34468e-05, 0, 0
    11000, 2.16386e-06, 9.11347e-06, 0, 0
    11100, 2.15162e-06, 8.8781e-06, 0, 0
    11200, 2.14756e-06, 1.80916e-05, 0, 0
    11300, 2.12863e-06, 8.73506e-06, 0, 0
    11400, 2.11813e-06, 8.57857e-06, 0, 0
    11500, 2.11794e-06, 1.70227e-05, 0, 0
    11600, 2.10065e-06, 8.52062e-06, 0, 0
    11700, 2.08583e-06, 8.34691e-06, 0, 0
    11800, 2.07572e-06, 8.47549e-06, 0, 0
    11900, 2.06498e-06, 8.30146e-06, 0, 0
    12000, 2.05576e-06, 8.28279e-06, 0, 0
    12100, 2.04863e-06, 8.29932e-06, 0, 0
    12200, 2.03476e-06, 8.06073e-06, 0, 0
    12300, 2.03403e-06, 1.7062e-05, 0, 0
    12400, 2.01438e-06, 8.09272e-06, 0, 0
    12500, 2.00456e-06, 8.09817e-06, 0, 0
    12600, 2.00696e-06, 1.555e-05, 0, 0
    12700, 1.99082e-06, 1.62619e-05, 0, 0
    12800, 1.98526e-06, 1.61868e-05, 0, 0
    12900, 1.97194e-06, 1.59987e-05, 0, 0
    13000, 1.96817e-06, 1.48854e-05, 0, 0
    13100, 1.94741e-06, 7.67631e-06, 0, 0
    13200, 1.93806e-06, 7.69729e-06, 0, 0
    13300, 1.93638e-06, 1.61817e-05, 0, 0
    13400, 1.91993e-06, 7.64621e-06, 0, 0
    13500, 1.91932e-06, 1.50912e-05, 0, 0
    13600, 1.90212e-06, 1.36888e-05, 0, 0
    13700, 1.89311e-06, 7.62338e-06, 0, 0
    13800, 1.89249e-06, 1.52844e-05, 0, 0
    13900, 1.87576e-06, 1.16637e-05, 0, 0
    14000, 1.86762e-06, 7.45982e-06, 0, 0
    14100, 1.85903e-06, 7.41821e-06, 0, 0
    14200, 1.85023e-06, 7.33321e-06, 0, 0
    14300, 1.84201e-06, 7.45592e-06, 0, 0
    14400, 1.83573e-06, 1.09581e-05, 0, 0
    14500, 1.82747e-06, 7.17091e-06, 0, 0
    14600, 1.81845e-06, 7.27376e-06, 0, 0
    14700, 1.81038e-06, 7.202e-06, 0, 0
    14800, 1.80302e-06, 7.22629e-06, 0, 0
    14900, 1.79701e-06, 7.21843e-06, 0, 0
    15000, 1.78791e-06, 1.18088e-05, 0, 0
    15100, 1.78034e-06, 7.06245e-06, 0, 0
    15200, 1.77294e-06, 7.12456e-06, 0, 0
    15300, 1.76739e-06, 7.09089e-06, 0, 0
    15400, 1.75885e-06, 7.01031e-06, 0, 0
    15500, 1.75162e-06, 6.91878e-06, 0, 0
    15600, 1.74476e-06, 6.98956e-06, 0, 0
    15700, 1.7395e-06, 6.95978e-06, 0, 0
    15800, 1.73137e-06, 1.13505e-05, 0, 0
    15900, 1.72432e-06, 6.81968e-06, 0, 0
    16000, 1.71784e-06, 6.75691e-06, 0, 0
    16100, 1.71126e-06, 9.7845e-06, 0, 0
    16200, 1.70387e-06, 1.02881e-05, 0, 0
    16300, 1.69808e-06, 6.70163e-06, 0, 0
    16400, 1.69147e-06, 6.63445e-06, 0, 0
    16500, 1.68548e-06, 6.68022e-06, 0, 0
    16600, 1.68067e-06, 6.66728e-06, 0, 0
    16700, 1.67323e-06, 6.45843e-06, 0, 0
    16800, 1.66642e-06, 6.52782e-06, 0, 0
    16900, 1.66035e-06, 6.44937e-06, 0, 0
    17000, 1.65458e-06, 6.56879e-06, 0, 0
    17100, 1.65533e-06, 1.15702e-05, 0, 0
    17200, 1.64251e-06, 6.42077e-06, 0, 0
    17300, 1.63639e-06, 6.35858e-06, 0, 0
    17400, 1.63108e-06, 6.33794e-06, 0, 0
    17500, 1.62674e-06, 6.35115e-06, 0, 0
    17600, 1.62505e-06, 1.10693e-05, 0, 0
    17700, 1.61337e-06, 6.21128e-06, 0, 0
    17800, 1.6083e-06, 6.16503e-06, 0, 0
    17900, 1.6044e-06, 6.24094e-06, 0, 0
    18000, 1.59715e-06, 6.16017e-06, 0, 0
    18100, 1.59138e-06, 6.09907e-06, 0, 0
    18200, 1.58636e-06, 6.07405e-06, 0, 0
    18300, 1.58215e-06, 6.12774e-06, 0, 0
    18400, 1.57609e-06, 6.06503e-06, 0, 0
    18500, 1.57028e-06, 5.99466e-06, 0, 0
    18600, 1.56495e-06, 5.92602e-06, 0, 0
    18700, 1.56074e-06, 6.01262e-06, 0, 0
    18800, 1.55492e-06, 9.53891e-06, 0, 0
    18900, 1.54981e-06, 5.8717e-06, 0, 0
    19000, 1.54554e-06, 5.83851e-06, 0, 0
    19100, 1.5423e-06, 5.9157e-06, 0, 0
    19200, 1.53519e-06, 5.81245e-06, 0, 0
    19300, 1.53083e-06, 5.75159e-06, 0, 0
    19400, 1.53098e-06, 1.04412e-05, 0, 0
    19500, 1.5209e-06, 5.72802e-06, 0, 0
    19600, 1.51666e-06, 5.67376e-06, 0, 0
    19700, 1.51399e-06, 5.75635e-06, 0, 0
    19800, 1.50722e-06, 5.66849e-06, 0, 0
    19900, 1.50347e-06, 5.67344e-06, 0, 0
--> FOAM Warning : Max iterations reached within momentum loop
Max sigmaEq (von Mises stress) = 546654
ExecutionTime = 141.12 s  ClockTime = 141 s

Jacobian determinant max. 1.00189 min. 0.998396

Time = 9

Evolving solid solver
Solving the total Lagrangian form of the momentum equation for DD
    Corr, res, relRes, matRes, iters
    100, 0.000126216, 0.00749522, 0, 0
    200, 9.31248e-05, 0.00234426, 0, 0
    300, 5.84668e-05, 0.00189181, 0, 0
    400, 4.48308e-05, 0.00161746, 0, 0
    500, 3.87933e-05, 0.00216295, 0, 0
    600, 2.27755e-05, 0.000424269, 0, 0
    700, 1.65787e-05, 0.000177787, 0, 0
    800, 1.51252e-05, 0.000155246, 0, 0
    900, 1.45184e-05, 0.000147164, 0, 0
    1000, 1.41234e-05, 0.000145863, 0, 0
    1100, 1.3782e-05, 0.000141436, 0, 0
    1200, 1.34677e-05, 0.000137202, 0, 0
    1300, 1.31854e-05, 0.000131021, 0, 0
    1400, 1.29282e-05, 0.000126387, 0, 0
    1500, 1.2691e-05, 0.000121628, 0, 0
    1600, 1.25386e-05, 0.000122092, 0, 0
    1700, 1.1453e-05, 7.95064e-05, 0, 0
    1800, 1.08749e-05, 7.39941e-05, 0, 0
    1900, 1.03309e-05, 7.38198e-05, 0, 0
    2000, 9.86626e-06, 6.28734e-05, 0, 0
    2100, 9.36398e-06, 6.145e-05, 0, 0
    2200, 8.90547e-06, 7.01017e-05, 0, 0
    2300, 8.49318e-06, 0.000126707, 0, 0
    2400, 8.16864e-06, 5.79973e-05, 0, 0
    2500, 7.91292e-06, 5.90259e-05, 0, 0
    2600, 7.64361e-06, 5.52343e-05, 0, 0
    2700, 7.35095e-06, 6.93064e-05, 0, 0
    2800, 7.22962e-06, 5.43717e-05, 0, 0
    2900, 6.99547e-06, 0.000108314, 0, 0
    3000, 6.85584e-06, 5.19817e-05, 0, 0
    3100, 6.66105e-06, 8.78521e-05, 0, 0
    3200, 6.53093e-06, 4.39926e-05, 0, 0
    3300, 6.41464e-06, 4.97677e-05, 0, 0
    3400, 6.28572e-06, 9.44145e-05, 0, 0
    3500, 6.17222e-06, 3.68554e-05, 0, 0
    3600, 6.10806e-06, 4.78665e-05, 0, 0
    3700, 6.01085e-06, 8.20368e-05, 0, 0
    3800, 5.93714e-06, 3.46768e-05, 0, 0
    3900, 5.85552e-06, 3.57883e-05, 0, 0
    4000, 5.77688e-06, 3.60592e-05, 0, 0
    4100, 5.70787e-06, 3.57905e-05, 0, 0
    4200, 5.66345e-06, 3.26614e-05, 0, 0
    4300, 5.60059e-06, 3.23529e-05, 0, 0
    4400, 5.5365e-06, 3.18002e-05, 0, 0
    4500, 5.47394e-06, 3.12552e-05, 0, 0
    4600, 5.41586e-06, 3.01862e-05, 0, 0
    4700, 5.35122e-06, 2.97448e-05, 0, 0
    4800, 5.27722e-06, 3.06087e-05, 0, 0
    4900, 5.21013e-06, 3.4827e-05, 0, 0
    5000, 5.15788e-06, 3.13264e-05, 0, 0
    5100, 5.10525e-06, 2.71764e-05, 0, 0
    5200, 5.04771e-06, 2.82436e-05, 0, 0
    5300, 4.98663e-06, 2.83158e-05, 0, 0
    5400, 4.95955e-06, 2.58237e-05, 0, 0
    5500, 4.89352e-06, 2.72166e-05, 0, 0
    5600, 4.85113e-06, 2.49781e-05, 0, 0
    5700, 4.78735e-06, 2.92279e-05, 0, 0
    5800, 4.74901e-06, 2.46048e-05, 0, 0
    5900, 4.69064e-06, 6.5526e-05, 0, 0
    6000, 4.64504e-06, 2.41666e-05, 0, 0
    6100, 4.62183e-06, 6.04319e-05, 0, 0
    6200, 4.56625e-06, 2.72267e-05, 0, 0
    6300, 4.52187e-06, 2.30976e-05, 0, 0
    6400, 4.48175e-06, 5.90538e-05, 0, 0
    6500, 4.43405e-06, 2.65216e-05, 0, 0
    6600, 4.40936e-06, 2.13296e-05, 0, 0
    6700, 4.37989e-06, 4.55502e-05, 0, 0
    6800, 4.32381e-06, 2.05012e-05, 0, 0
    6900, 4.28789e-06, 2.14811e-05, 0, 0
    7000, 4.24451e-06, 2.06116e-05, 0, 0
    7100, 4.2177e-06, 1.97002e-05, 0, 0
    7200, 4.18589e-06, 1.86597e-05, 0, 0
    7300, 4.13911e-06, 2.51297e-05, 0, 0
    7400, 4.10299e-06, 1.91532e-05, 0, 0
    7500, 4.08059e-06, 1.81206e-05, 0, 0
    7600, 4.04782e-06, 1.76173e-05, 0, 0
    7700, 4.00937e-06, 1.80963e-05, 0, 0
    7800, 3.98527e-06, 1.73725e-05, 0, 0
    7900, 3.95124e-06, 1.69971e-05, 0, 0
    8000, 3.91417e-06, 1.76533e-05, 0, 0
    8100, 3.88655e-06, 1.66627e-05, 0, 0
    8200, 3.85233e-06, 1.64883e-05, 0, 0
    8300, 3.82093e-06, 1.62026e-05, 0, 0
    8400, 3.79157e-06, 1.59375e-05, 0, 0
    8500, 3.76171e-06, 1.58293e-05, 0, 0
    8600, 3.73359e-06, 1.55454e-05, 0, 0
    8700, 3.70321e-06, 1.68051e-05, 0, 0
    8800, 3.67164e-06, 1.8764e-05, 0, 0
    8900, 3.6553e-06, 4.79344e-05, 0, 0
    9000, 3.6301e-06, 1.51503e-05, 0, 0
    9100, 3.60209e-06, 1.4922e-05, 0, 0
    9200, 3.57564e-06, 1.12339e-05, 0, 0
    9300, 3.55277e-06, 1.07553e-05, 0, 0
    9400, 3.52571e-06, 1.4213e-05, 0, 0
    9500, 3.50014e-06, 1.8218e-05, 0, 0
    9600, 3.47972e-06, 1.04402e-05, 0, 0
    9700, 3.45599e-06, 1.37433e-05, 0, 0
    9800, 3.43248e-06, 1.72262e-05, 0, 0
    9900, 3.41119e-06, 1.02003e-05, 0, 0
    10000, 3.3806e-06, 1.33854e-05, 0, 0
    10100, 3.38574e-06, 3.71739e-05, 0, 0
    10200, 3.34422e-06, 1.29639e-05, 0, 0
    10300, 3.31925e-06, 1.63689e-05, 0, 0
    10400, 3.30038e-06, 9.68638e-06, 0, 0
    10500, 3.26979e-06, 9.71952e-06, 0, 0
    10600, 3.25119e-06, 1.25628e-05, 0, 0
    10700, 3.23851e-06, 1.03724e-05, 0, 0
    10800, 3.21573e-06, 9.38212e-06, 0, 0
    10900, 3.18929e-06, 9.26481e-06, 0, 0
    11000, 3.1725e-06, 1.23622e-05, 0, 0
    11100, 3.15019e-06, 9.14167e-06, 0, 0
    11200, 3.13012e-06, 9.10871e-06, 0, 0
    11300, 3.1146e-06, 1.17588e-05, 0, 0
    11400, 3.08892e-06, 8.94148e-06, 0, 0
    11500, 3.06882e-06, 8.86083e-06, 0, 0
    11600, 3.06331e-06, 1.1617e-05, 0, 0
    11700, 3.03164e-06, 8.74604e-06, 0, 0
    11800, 3.01834e-06, 8.61385e-06, 0, 0
    11900, 3.00803e-06, 1.13591e-05, 0, 0
    12000, 2.97704e-06, 8.5317e-06, 0, 0
    12100, 2.96858e-06, 8.39002e-06, 0, 0
    12200, 2.96774e-06, 2.62439e-05, 0, 0
    12300, 2.92578e-06, 8.3332e-06, 0, 0
    12400, 2.9125e-06, 1.09204e-05, 0, 0
    12500, 2.89932e-06, 8.19373e-06, 0, 0
    12600, 2.88201e-06, 1.06629e-05, 0, 0
    12700, 2.86374e-06, 8.03929e-06, 0, 0
    12800, 2.85932e-06, 3.10728e-05, 0, 0
    12900, 2.82526e-06, 7.73506e-06, 0, 0
    13000, 2.82327e-06, 7.85104e-06, 0, 0
    13100, 2.79746e-06, 7.76841e-06, 0, 0
    13200, 2.78908e-06, 7.63686e-06, 0, 0
    13300, 2.77346e-06, 1.30412e-05, 0, 0
    13400, 2.75516e-06, 7.54175e-06, 0, 0
    13500, 2.73771e-06, 1.32183e-05, 0, 0
    13600, 2.73416e-06, 1.18273e-05, 0, 0
    13700, 2.71147e-06, 7.34562e-06, 0, 0
    13800, 2.69475e-06, 1.35829e-05, 0, 0
    13900, 2.6924e-06, 9.59494e-06, 0, 0
    14000, 2.6696e-06, 7.16186e-06, 0, 0
    14100, 2.6673e-06, 1.03947e-05, 0, 0
    14200, 2.64129e-06, 7.06619e-06, 0, 0
    14300, 2.62677e-06, 7.18269e-06, 0, 0
    14400, 2.63031e-06, 9.06047e-06, 0, 0
    14500, 2.60473e-06, 6.86392e-06, 0, 0
    14600, 2.59175e-06, 6.74942e-06, 0, 0
    14700, 2.58126e-06, 6.82078e-06, 0, 0
    14800, 2.5669e-06, 1.20544e-05, 0, 0
    14900, 2.55501e-06, 6.73112e-06, 0, 0
    15000, 2.55172e-06, 6.63072e-06, 0, 0
    15100, 2.53966e-06, 3.11477e-05, 0, 0
    15200, 2.52626e-06, 6.48725e-06, 0, 0
    15300, 2.5119e-06, 8.2164e-06, 0, 0
    15400, 2.50404e-06, 1.00609e-05, 0, 0
    15500, 2.49103e-06, 6.30232e-06, 0, 0
    15600, 2.47812e-06, 6.35938e-06, 0, 0
    15700, 2.46174e-06, 6.21289e-06, 0, 0
    15800, 2.4544e-06, 6.27594e-06, 0, 0
    15900, 2.43813e-06, 1.08757e-05, 0, 0
    16000, 2.44387e-06, 1.03258e-05, 0, 0
    16100, 2.42126e-06, 6.07426e-06, 0, 0
    16200, 2.41428e-06, 6.01239e-06, 0, 0
    16300, 2.40266e-06, 6.03207e-06, 0, 0
    16400, 2.38673e-06, 5.88867e-06, 0, 0
    16500, 2.38107e-06, 5.94262e-06, 0, 0
    16600, 2.37575e-06, 5.94246e-06, 0, 0
    16700, 2.35902e-06, 5.84078e-06, 0, 0
    16800, 2.35809e-06, 7.55928e-06, 0, 0
    16900, 2.33868e-06, 5.74526e-06, 0, 0
    17000, 2.3462e-06, 9.30478e-06, 0, 0
    17100, 2.31909e-06, 5.64569e-06, 0, 0
    17200, 2.31318e-06, 1.06646e-05, 0, 0
    17300, 2.30144e-06, 5.55276e-06, 0, 0
    17400, 2.29262e-06, 9.52106e-06, 0, 0
    17500, 2.28316e-06, 5.38037e-06, 0, 0
    17600, 2.27724e-06, 5.4456e-06, 0, 0
    17700, 2.26725e-06, 1.27435e-05, 0, 0
    17800, 2.25466e-06, 5.33939e-06, 0, 0
    17900, 2.24766e-06, 5.36297e-06, 0, 0
    18000, 2.23262e-06, 1.04949e-05, 0, 0
    18100, 2.24207e-06, 8.93401e-06, 0, 0
    18200, 2.22004e-06, 5.18501e-06, 0, 0
    18300, 2.21072e-06, 9.14963e-06, 0, 0
    18400, 2.20353e-06, 5.13741e-06, 0, 0
    18500, 2.1937e-06, 5.13413e-06, 0, 0
    18600, 2.18357e-06, 5.03686e-06, 0, 0
    18700, 2.17733e-06, 5.05535e-06, 0, 0
    18800, 2.17403e-06, 5.01371e-06, 0, 0
    18900, 2.15714e-06, 1.12168e-05, 0, 0
    19000, 2.15126e-06, 4.88894e-06, 0, 0
    19100, 2.1444e-06, 4.90761e-06, 0, 0
    19200, 2.14228e-06, 6.32152e-06, 0, 0
    19300, 2.12495e-06, 4.78882e-06, 0, 0
    19400, 2.12104e-06, 4.77062e-06, 0, 0
    19500, 2.11112e-06, 4.77199e-06, 0, 0
    19600, 2.10687e-06, 4.7459e-06, 0, 0
    19700, 2.09888e-06, 8.07707e-06, 0, 0
[...]
    14100, 4.92041e-06, 1.93344e-05, 0, 0
    14200, 4.91091e-06, 1.93317e-05, 0, 0
    14300, 4.90151e-06, 1.93292e-05, 0, 0
    14400, 4.89221e-06, 1.93269e-05, 0, 0
    14500, 4.88302e-06, 1.93248e-05, 0, 0
    14600, 4.87424e-06, 1.93229e-05, 0, 0
    14700, 4.86571e-06, 1.93211e-05, 0, 0
    14800, 4.8574e-06, 1.93195e-05, 0, 0
    14900, 4.84919e-06, 1.93181e-05, 0, 0
    15000, 4.84117e-06, 1.93169e-05, 0, 0
    15100, 4.8333e-06, 1.93158e-05, 0, 0
    15200, 4.82551e-06, 1.93149e-05, 0, 0
    15300, 4.81781e-06, 1.93141e-05, 0, 0
    15400, 4.81021e-06, 1.93135e-05, 0, 0
    15500, 4.80281e-06, 1.93131e-05, 0, 0
    15600, 4.79558e-06, 1.93128e-05, 0, 0
    15700, 4.78858e-06, 1.93126e-05, 0, 0
    15800, 4.78193e-06, 1.93126e-05, 0, 0
    15900, 4.77538e-06, 1.93128e-05, 0, 0
    16000, 4.76921e-06, 1.93131e-05, 0, 0
    16100, 4.76317e-06, 1.93135e-05, 0, 0
    16200, 4.7572e-06, 1.93141e-05, 0, 0
    16300, 4.75128e-06, 1.93148e-05, 0, 0
    16400, 4.74543e-06, 1.93156e-05, 0, 0
    16500, 4.73969e-06, 1.93166e-05, 0, 0
    16600, 4.73404e-06, 1.93177e-05, 0, 0
    16700, 4.72848e-06, 1.9319e-05, 0, 0
    16800, 4.72306e-06, 1.93203e-05, 0, 0
    16900, 4.71769e-06, 1.93218e-05, 0, 0
    17000, 4.71243e-06, 1.93234e-05, 0, 0
    17100, 4.70743e-06, 1.93252e-05, 0, 0
    17200, 4.70259e-06, 1.9327e-05, 0, 0
    17300, 4.69788e-06, 1.9329e-05, 0, 0
    17400, 4.69329e-06, 1.93311e-05, 0, 0
    17500, 4.68887e-06, 1.93332e-05, 0, 0
    17600, 4.68453e-06, 1.93356e-05, 0, 0
    17700, 4.68026e-06, 1.9338e-05, 0, 0
    17800, 4.67606e-06, 1.93405e-05, 0, 0
    17900, 4.67189e-06, 1.93431e-05, 0, 0
    18000, 4.66776e-06, 1.93459e-05, 0, 0
    18100, 4.66368e-06, 1.93487e-05, 0, 0
    18200, 4.65968e-06, 1.93517e-05, 0, 0
    18300, 4.65571e-06, 1.93547e-05, 0, 0
    18400, 4.65183e-06, 1.93579e-05, 0, 0
    18500, 4.648e-06, 1.93611e-05, 0, 0
    18600, 4.64433e-06, 1.93645e-05, 0, 0
    18700, 4.64071e-06, 1.93679e-05, 0, 0
    18800, 4.63725e-06, 1.93714e-05, 0, 0
    18900, 4.63393e-06, 1.93751e-05, 0, 0
    19000, 4.63066e-06, 1.93788e-05, 0, 0
    19100, 4.62742e-06, 1.93826e-05, 0, 0
    19200, 4.62421e-06, 1.93865e-05, 0, 0
    19300, 4.62103e-06, 1.93905e-05, 0, 0
    19400, 4.61786e-06, 1.93946e-05, 0, 0
    19500, 4.61473e-06, 1.93988e-05, 0, 0
    19600, 4.61164e-06, 1.9403e-05, 0, 0
    19700, 4.60858e-06, 1.94074e-05, 0, 0
    19800, 4.60553e-06, 1.94118e-05, 0, 0
    19900, 4.60251e-06, 1.94163e-05, 0, 0
--> FOAM Warning : Max iterations reached within momentum loop
Max sigmaEq (von Mises stress) = 3.68222e+06
ExecutionTime = 585.33 s  ClockTime = 586 s

Jacobian determinant max. 1.01321 min. 0.98177

Time = 29

Evolving solid solver
Solving the total Lagrangian form of the momentum equation for DD
    Corr, res, relRes, matRes, iters
    100, 3.83488e-05, 0.0031447, 0, 0
    200, 1.77609e-05, 0.00031536, 0, 0
    300, 1.31693e-05, 0.000120677, 0, 0
    400, 1.13976e-05, 0.000109278, 0, 0
    500, 1.03317e-05, 0.000103128, 0, 0
    600, 9.59507e-06, 9.86435e-05, 0, 0
    700, 9.10966e-06, 9.50558e-05, 0, 0
    800, 8.75018e-06, 9.20087e-05, 0, 0
    900, 8.44784e-06, 8.93662e-05, 0, 0
    1000, 8.17418e-06, 8.70172e-05, 0, 0
    1100, 7.95539e-06, 8.48959e-05, 0, 0
    1200, 7.78554e-06, 8.29804e-05, 0, 0
    1300, 7.63874e-06, 8.12192e-05, 0, 0
    1400, 7.50203e-06, 7.95948e-05, 0, 0
    1500, 7.39322e-06, 7.80906e-05, 0, 0
    1600, 7.30909e-06, 7.66929e-05, 0, 0
    1700, 7.23402e-06, 7.53905e-05, 0, 0
    1800, 7.16894e-06, 7.41741e-05, 0, 0
    1900, 7.11019e-06, 7.30361e-05, 0, 0
    2000, 7.05594e-06, 7.19696e-05, 0, 0
    2100, 7.00644e-06, 7.0969e-05, 0, 0
    2200, 6.95992e-06, 7.0029e-05, 0, 0
    2300, 6.91917e-06, 6.91451e-05, 0, 0
    2400, 6.88386e-06, 6.83132e-05, 0, 0
    2500, 6.85641e-06, 6.75297e-05, 0, 0
    2600, 6.82991e-06, 6.6791e-05, 0, 0
    2700, 6.80837e-06, 6.60942e-05, 0, 0
    2800, 6.78941e-06, 6.54365e-05, 0, 0
    2900, 6.77169e-06, 6.48153e-05, 0, 0
    3000, 6.75482e-06, 6.42282e-05, 0, 0
    3100, 6.7415e-06, 6.36732e-05, 0, 0
    3200, 6.72841e-06, 6.31481e-05, 0, 0
    3300, 6.71554e-06, 6.26511e-05, 0, 0
    3400, 6.70286e-06, 6.23777e-05, 0, 0
    3500, 6.69048e-06, 6.22953e-05, 0, 0
    3600, 6.67888e-06, 6.22114e-05, 0, 0
    3700, 6.66775e-06, 6.21266e-05, 0, 0
    3800, 6.65688e-06, 6.20411e-05, 0, 0
    3900, 6.64638e-06, 6.19554e-05, 0, 0
    4000, 6.63661e-06, 6.18697e-05, 0, 0
    4100, 6.62699e-06, 6.17843e-05, 0, 0
    4200, 6.61784e-06, 6.16995e-05, 0, 0
    4300, 6.6092e-06, 6.16155e-05, 0, 0
    4400, 6.60092e-06, 6.15324e-05, 0, 0
    4500, 6.59328e-06, 6.14505e-05, 0, 0
    4600, 6.58617e-06, 6.13699e-05, 0, 0
    4700, 6.57952e-06, 6.12907e-05, 0, 0
    4800, 6.57374e-06, 6.1213e-05, 0, 0
    4900, 6.56843e-06, 6.09579e-05, 0, 0
    5000, 6.5633e-06, 6.06087e-05, 0, 0
    5100, 6.55842e-06, 6.02636e-05, 0, 0
    5200, 6.5538e-06, 5.99224e-05, 0, 0
    5300, 6.54935e-06, 5.95853e-05, 0, 0
    5400, 6.54504e-06, 5.92523e-05, 0, 0
    5500, 6.54085e-06, 5.89233e-05, 0, 0
    5600, 6.53677e-06, 5.85983e-05, 0, 0
    5700, 6.53315e-06, 5.82773e-05, 0, 0
    5800, 6.52973e-06, 5.79602e-05, 0, 0
    5900, 6.52637e-06, 5.76472e-05, 0, 0
    6000, 6.52307e-06, 5.73381e-05, 0, 0
    6100, 6.51985e-06, 5.70328e-05, 0, 0
    6200, 6.5167e-06, 5.67314e-05, 0, 0
    6300, 6.51363e-06, 5.64339e-05, 0, 0
    6400, 6.5107e-06, 5.61401e-05, 0, 0
    6500, 6.50795e-06, 5.585e-05, 0, 0
    6600, 6.5053e-06, 5.55637e-05, 0, 0
    6700, 6.50275e-06, 5.5281e-05, 0, 0
    6800, 6.5004e-06, 5.50018e-05, 0, 0
    6900, 6.49818e-06, 5.47263e-05, 0, 0
    7000, 6.49673e-06, 5.44542e-05, 0, 0
    7100, 6.49559e-06, 5.41856e-05, 0, 0
    7200, 6.49483e-06, 5.39205e-05, 0, 0
    7300, 6.49419e-06, 5.36587e-05, 0, 0
    7400, 6.49357e-06, 5.34002e-05, 0, 0
    7500, 6.49298e-06, 5.31449e-05, 0, 0
    7600, 6.49241e-06, 5.28929e-05, 0, 0
    7700, 6.49187e-06, 5.2644e-05, 0, 0
    7800, 6.49139e-06, 5.23983e-05, 0, 0
    7900, 6.491e-06, 5.21556e-05, 0, 0
    8000, 6.49092e-06, 5.1916e-05, 0, 0
    8100, 6.49089e-06, 5.16793e-05, 0, 0
    8200, 6.49122e-06, 5.14456e-05, 0, 0
    8300, 6.4917e-06, 5.12148e-05, 0, 0
    8400, 6.49222e-06, 5.09868e-05, 0, 0
    8500, 6.49281e-06, 5.07615e-05, 0, 0
    8600, 6.49345e-06, 5.05391e-05, 0, 0
    8700, 6.49447e-06, 5.03193e-05, 0, 0
    8800, 6.49549e-06, 5.01022e-05, 0, 0
    8900, 6.49653e-06, 4.98877e-05, 0, 0
    9000, 6.49766e-06, 4.96758e-05, 0, 0
    9100, 6.49879e-06, 4.94664e-05, 0, 0
    9200, 6.49994e-06, 4.92595e-05, 0, 0
    9300, 6.50124e-06, 4.90551e-05, 0, 0
    9400, 6.50264e-06, 4.8853e-05, 0, 0
    9500, 6.50403e-06, 4.86534e-05, 0, 0
    9600, 6.50542e-06, 4.84562e-05, 0, 0
    9700, 6.50688e-06, 4.82737e-05, 0, 0
    9800, 6.50835e-06, 4.81139e-05, 0, 0
    9900, 6.51001e-06, 4.79555e-05, 0, 0
    10000, 6.51186e-06, 4.77983e-05, 0, 0
    10100, 6.5138e-06, 4.76424e-05, 0, 0
    10200, 6.51573e-06, 4.74878e-05, 0, 0
    10300, 6.51766e-06, 4.73344e-05, 0, 0
    10400, 6.51959e-06, 4.71822e-05, 0, 0
    10500, 6.52151e-06, 4.70312e-05, 0, 0
    10600, 6.52343e-06, 4.68815e-05, 0, 0
    10700, 6.52535e-06, 4.67329e-05, 0, 0
    10800, 6.52727e-06, 4.65855e-05, 0, 0
    10900, 6.52917e-06, 4.64393e-05, 0, 0
    11000, 6.53123e-06, 4.62943e-05, 0, 0
    11100, 6.53339e-06, 4.61504e-05, 0, 0
    11200, 6.53554e-06, 4.60077e-05, 0, 0
    11300, 6.53774e-06, 4.58661e-05, 0, 0
    11400, 6.54008e-06, 4.57256e-05, 0, 0
    11500, 6.54242e-06, 4.55862e-05, 0, 0
    11600, 6.54493e-06, 4.54479e-05, 0, 0
    11700, 6.54752e-06, 4.53107e-05, 0, 0
    11800, 6.5501e-06, 4.51746e-05, 0, 0
    11900, 6.55268e-06, 4.50396e-05, 0, 0
    12000, 6.55525e-06, 4.49056e-05, 0, 0
    12100, 6.55782e-06, 4.47726e-05, 0, 0
    12200, 6.56039e-06, 4.46407e-05, 0, 0
    12300, 6.56296e-06, 4.45099e-05, 0, 0
    12400, 6.56551e-06, 4.438e-05, 0, 0
    12500, 6.56809e-06, 4.42511e-05, 0, 0
    12600, 6.57072e-06, 4.41233e-05, 0, 0
    12700, 6.57333e-06, 4.39964e-05, 0, 0
    12800, 6.57592e-06, 4.38705e-05, 0, 0
    12900, 6.57851e-06, 4.37456e-05, 0, 0
    13000, 6.58109e-06, 4.36216e-05, 0, 0
    13100, 6.58367e-06, 4.34986e-05, 0, 0
    13200, 6.58627e-06, 4.33765e-05, 0, 0
    13300, 6.58885e-06, 4.32553e-05, 0, 0
    13400, 6.59143e-06, 4.3135e-05, 0, 0
    13500, 6.594e-06, 4.30157e-05, 0, 0
    13600, 6.59657e-06, 4.28973e-05, 0, 0
    13700, 6.59912e-06, 4.27797e-05, 0, 0
    13800, 6.6017e-06, 4.26631e-05, 0, 0
    13900, 6.60428e-06, 4.25473e-05, 0, 0
    14000, 6.60685e-06, 4.24324e-05, 0, 0
    14100, 6.60942e-06, 4.23183e-05, 0, 0
    14200, 6.61198e-06, 4.22051e-05, 0, 0
    14300, 6.61458e-06, 4.20927e-05, 0, 0
    14400, 6.61718e-06, 4.19812e-05, 0, 0
    14500, 6.61978e-06, 4.18705e-05, 0, 0
    14600, 6.62237e-06, 4.17606e-05, 0, 0
    14700, 6.62506e-06, 4.16515e-05, 0, 0
    14800, 6.62773e-06, 4.15432e-05, 0, 0
    14900, 6.6304e-06, 4.14357e-05, 0, 0
    15000, 6.63307e-06, 4.1329e-05, 0, 0
    15100, 6.63585e-06, 4.1223e-05, 0, 0
    15200, 6.63897e-06, 4.11179e-05, 0, 0
    15300, 6.64213e-06, 4.10134e-05, 0, 0
    15400, 6.64526e-06, 4.09098e-05, 0, 0
    15500, 6.64841e-06, 4.08069e-05, 0, 0
    15600, 6.65155e-06, 4.07047e-05, 0, 0
    15700, 6.65486e-06, 4.06033e-05, 0, 0
    15800, 6.65811e-06, 4.05026e-05, 0, 0
    15900, 6.66132e-06, 4.04026e-05, 0, 0
    16000, 6.66453e-06, 4.03033e-05, 0, 0
    16100, 6.66779e-06, 4.02047e-05, 0, 0
    16200, 6.67103e-06, 4.01068e-05, 0, 0
    16300, 6.67433e-06, 4.00096e-05, 0, 0
    16400, 6.67764e-06, 3.99131e-05, 0, 0
    16500, 6.68093e-06, 3.98173e-05, 0, 0
    16600, 6.68421e-06, 3.97221e-05, 0, 0
    16700, 6.68748e-06, 3.96276e-05, 0, 0
    16800, 6.69074e-06, 3.95338e-05, 0, 0
    16900, 6.69398e-06, 3.94406e-05, 0, 0
    17000, 6.69719e-06, 3.93481e-05, 0, 0
    17100, 6.7004e-06, 3.92562e-05, 0, 0
    17200, 6.70359e-06, 3.91649e-05, 0, 0
    17300, 6.70679e-06, 3.90743e-05, 0, 0
    17400, 6.71e-06, 3.89842e-05, 0, 0
    17500, 6.7132e-06, 3.88948e-05, 0, 0
    17600, 6.7164e-06, 3.88061e-05, 0, 0
    17700, 6.71958e-06, 3.87179e-05, 0, 0
    17800, 6.72275e-06, 3.86303e-05, 0, 0
    17900, 6.72591e-06, 3.85433e-05, 0, 0
    18000, 6.72908e-06, 3.84569e-05, 0, 0
    18100, 6.73224e-06, 3.83711e-05, 0, 0
    18200, 6.7354e-06, 3.82859e-05, 0, 0
    18300, 6.73873e-06, 3.82012e-05, 0, 0
    18400, 6.74206e-06, 3.81171e-05, 0, 0
    18500, 6.74538e-06, 3.80336e-05, 0, 0
    18600, 6.74868e-06, 3.79506e-05, 0, 0
    18700, 6.75198e-06, 3.78681e-05, 0, 0
    18800, 6.75528e-06, 3.77863e-05, 0, 0
    18900, 6.75857e-06, 3.77049e-05, 0, 0
    19000, 6.76186e-06, 3.76241e-05, 0, 0
    19100, 6.76513e-06, 3.75439e-05, 0, 0
    19200, 6.76839e-06, 3.74641e-05, 0, 0
    19300, 6.77164e-06, 3.73849e-05, 0, 0
    19400, 6.77487e-06, 3.73062e-05, 0, 0
    19500, 6.77808e-06, 3.7228e-05, 0, 0
    19600, 6.78127e-06, 3.71504e-05, 0, 0
    19700, 6.78446e-06, 3.70732e-05, 0, 0
    19800, 6.78768e-06, 3.69965e-05, 0, 0
    19900, 6.791e-06, 3.69203e-05, 0, 0
--> FOAM Warning : Max iterations reached within momentum loop
Max sigmaEq (von Mises stress) = 3.97714e+06
ExecutionTime = 606.88 s  ClockTime = 607 s

Jacobian determinant max. 1.02238 min. 0.969322

Time = 30

Evolving solid solver
Solving the total Lagrangian form of the momentum equation for DD
    Corr, res, relRes, matRes, iters
    100, 0.00018786, 0.0029335, 0, 0
    200, 0.000103888, 0.00201297, 0, 0
    300, 7.37359e-05, 0.00192837, 0, 0
    400, 6.48183e-05, 0.00210508, 0, 0
    500, 5.74938e-05, 0.00220135, 0, 0
    600, 4.0172e-05, 0.000543282, 0, 0
    700, 3.71415e-05, 0.000370954, 0, 0
    800, 3.52551e-05, 0.000399521, 0, 0
    900, 3.08518e-05, 0.00015802, 0, 0
    1000, 2.78461e-05, 0.00011196, 0, 0
    1100, 2.57939e-05, 8.62535e-05, 0, 0
    1200, 2.41544e-05, 7.11223e-05, 0, 0
    1300, 2.2818e-05, 6.84794e-05, 0, 0
    1400, 2.17238e-05, 6.66095e-05, 0, 0
    1500, 2.08566e-05, 6.59525e-05, 0, 0
    1600, 2.01082e-05, 6.60073e-05, 0, 0
    1700, 1.94669e-05, 6.59221e-05, 0, 0
    1800, 1.89062e-05, 6.57219e-05, 0, 0
    1900, 1.84269e-05, 6.5891e-05, 0, 0
    2000, 1.7997e-05, 6.54289e-05, 0, 0
    2100, 1.76101e-05, 6.48115e-05, 0, 0
    2200, 1.7271e-05, 6.45018e-05, 0, 0
    2300, 1.69996e-05, 6.42648e-05, 0, 0
    2400, 1.67621e-05, 6.40662e-05, 0, 0
    2500, 1.65404e-05, 6.9475e-05, 0, 0
    2600, 1.63391e-05, 6.30728e-05, 0, 0
    2700, 1.61679e-05, 6.83548e-05, 0, 0
    2800, 1.59758e-05, 6.217e-05, 0, 0
    2900, 1.58212e-05, 6.17509e-05, 0, 0
    3000, 1.56823e-05, 6.15417e-05, 0, 0
    3100, 1.55662e-05, 6.13612e-05, 0, 0
    3200, 1.5444e-05, 7.07141e-05, 0, 0
    3300, 1.53428e-05, 6.14556e-05, 0, 0
    3400, 1.52261e-05, 6.14627e-05, 0, 0
    3500, 1.5132e-05, 6.17464e-05, 0, 0
    3600, 1.50409e-05, 6.16596e-05, 0, 0
    3700, 1.4962e-05, 6.17083e-05, 0, 0
    3800, 1.48698e-05, 6.18707e-05, 0, 0
    3900, 1.47985e-05, 6.19092e-05, 0, 0
    4000, 1.47222e-05, 6.2023e-05, 0, 0
    4100, 1.46421e-05, 6.20807e-05, 0, 0
    4200, 1.46005e-05, 6.28067e-05, 0, 0
    4300, 1.45013e-05, 6.23696e-05, 0, 0
    4400, 1.4438e-05, 6.22601e-05, 0, 0
    4500, 1.43746e-05, 6.24963e-05, 0, 0
    4600, 1.4314e-05, 6.26222e-05, 0, 0
    4700, 1.42537e-05, 6.24675e-05, 0, 0
    4800, 1.41956e-05, 6.27388e-05, 0, 0
    4900, 1.41391e-05, 6.28261e-05, 0, 0
    5000, 1.40896e-05, 6.28391e-05, 0, 0
    5100, 1.40341e-05, 6.27207e-05, 0, 0
    5200, 1.3982e-05, 6.30145e-05, 0, 0
    5300, 1.39439e-05, 6.31661e-05, 0, 0
    5400, 1.38858e-05, 6.29509e-05, 0, 0
    5500, 1.38397e-05, 6.31983e-05, 0, 0
    5600, 1.38005e-05, 6.32816e-05, 0, 0
    5700, 1.37602e-05, 6.33385e-05, 0, 0
    5800, 1.37181e-05, 6.3181e-05, 0, 0
    5900, 1.37158e-05, 6.41623e-05, 0, 0
    6000, 1.36508e-05, 6.3619e-05, 0, 0
    6100, 1.36185e-05, 6.34432e-05, 0, 0
    6200, 1.3587e-05, 6.37684e-05, 0, 0
    6300, 1.35616e-05, 6.38088e-05, 0, 0
    6400, 1.35366e-05, 6.38097e-05, 0, 0
    6500, 1.35076e-05, 6.39944e-05, 0, 0
    6600, 1.3486e-05, 6.37599e-05, 0, 0
    6700, 1.34589e-05, 6.41421e-05, 0, 0
    6800, 1.34388e-05, 6.39122e-05, 0, 0
    6900, 1.34135e-05, 6.42956e-05, 0, 0
    7000, 1.33979e-05, 6.40939e-05, 0, 0
    7100, 1.33737e-05, 6.44555e-05, 0, 0
    7200, 1.3353e-05, 0.00017417, 0, 0
    7300, 1.33376e-05, 6.46081e-05, 0, 0
    7400, 1.33185e-05, 6.47546e-05, 0, 0
    7500, 1.33053e-05, 6.45081e-05, 0, 0
    7600, 1.3287e-05, 6.48645e-05, 0, 0
    7700, 1.32708e-05, 6.50343e-05, 0, 0
    7800, 1.32592e-05, 6.49446e-05, 0, 0
    7900, 1.32438e-05, 6.51428e-05, 0, 0
    8000, 1.32304e-05, 6.53055e-05, 0, 0
    8100, 1.32217e-05, 6.5178e-05, 0, 0
    8200, 1.32087e-05, 6.54001e-05, 0, 0
    8300, 1.31977e-05, 6.55669e-05, 0, 0
    8400, 1.31991e-05, 6.52802e-05, 0, 0
    8500, 1.31814e-05, 6.56559e-05, 0, 0
    8600, 1.3172e-05, 6.58201e-05, 0, 0
    8700, 1.31637e-05, 6.59617e-05, 0, 0
    8800, 1.31669e-05, 6.56281e-05, 0, 0
    8900, 1.3151e-05, 6.60295e-05, 0, 0
    9000, 1.3144e-05, 6.62001e-05, 0, 0
    9100, 1.31378e-05, 6.6344e-05, 0, 0
    9200, 1.31326e-05, 6.64715e-05, 0, 0
    9300, 1.31303e-05, 6.63136e-05, 0, 0
    9400, 1.31242e-05, 6.65347e-05, 0, 0
    9500, 1.31195e-05, 6.67072e-05, 0, 0
    9600, 1.31153e-05, 6.68499e-05, 0, 0
    9700, 1.31118e-05, 6.6977e-05, 0, 0
    9800, 1.31085e-05, 6.70957e-05, 0, 0
    9900, 1.31149e-05, 6.67207e-05, 0, 0
    10000, 1.31044e-05, 6.71339e-05, 0, 0
    10100, 1.31017e-05, 6.7313e-05, 0, 0
    10200, 1.30996e-05, 6.74638e-05, 0, 0
    10300, 1.30978e-05, 6.75993e-05, 0, 0
    10400, 1.30968e-05, 6.77247e-05, 0, 0
    10500, 1.30961e-05, 6.78444e-05, 0, 0
    10600, 1.3096e-05, 6.79615e-05, 0, 0
    10700, 1.3096e-05, 6.80769e-05, 0, 0
    10800, 1.30962e-05, 6.81915e-05, 0, 0
    10900, 1.30967e-05, 6.83061e-05, 0, 0
    11000, 1.30975e-05, 6.84209e-05, 0, 0
    11100, 1.30984e-05, 6.85362e-05, 0, 0
    11200, 1.30995e-05, 6.8652e-05, 0, 0
    11300, 1.31009e-05, 6.87686e-05, 0, 0
    11400, 1.31025e-05, 6.88858e-05, 0, 0
    11500, 1.31046e-05, 6.90037e-05, 0, 0
    11600, 1.3107e-05, 6.91223e-05, 0, 0
    11700, 1.31096e-05, 6.92417e-05, 0, 0
    11800, 1.31124e-05, 6.93618e-05, 0, 0
    11900, 1.31154e-05, 6.94826e-05, 0, 0
    12000, 1.31186e-05, 6.96042e-05, 0, 0
    12100, 1.31221e-05, 6.97265e-05, 0, 0
    12200, 1.31257e-05, 6.98495e-05, 0, 0
    12300, 1.31296e-05, 6.99732e-05, 0, 0
    12400, 1.31334e-05, 7.00976e-05, 0, 0
    12500, 1.31373e-05, 7.02228e-05, 0, 0
    12600, 1.31412e-05, 7.03486e-05, 0, 0
    12700, 1.31453e-05, 7.04752e-05, 0, 0
    12800, 1.31495e-05, 7.06025e-05, 0, 0
    12900, 1.31538e-05, 7.07306e-05, 0, 0
    13000, 1.31581e-05, 7.08593e-05, 0, 0
    13100, 1.31627e-05, 7.09887e-05, 0, 0
    13200, 1.31674e-05, 7.11189e-05, 0, 0
    13300, 1.31722e-05, 7.12498e-05, 0, 0
    13400, 1.31772e-05, 7.13814e-05, 0, 0
    13500, 1.31829e-05, 7.15136e-05, 0, 0
    13600, 1.31888e-05, 7.16466e-05, 0, 0
    13700, 1.31948e-05, 7.17804e-05, 0, 0
    13800, 1.3201e-05, 7.19148e-05, 0, 0
    13900, 1.32073e-05, 7.20499e-05, 0, 0
    14000, 1.32139e-05, 7.21857e-05, 0, 0
    14100, 1.32206e-05, 7.23222e-05, 0, 0
    14200, 1.32275e-05, 7.24595e-05, 0, 0
    14300, 1.32346e-05, 7.25974e-05, 0, 0
    14400, 1.32418e-05, 7.2736e-05, 0, 0
    14500, 1.32491e-05, 7.28753e-05, 0, 0
    14600, 1.32564e-05, 7.30154e-05, 0, 0
    14700, 1.32638e-05, 7.31561e-05, 0, 0
    14800, 1.32713e-05, 7.32975e-05, 0, 0
    14900, 1.32788e-05, 7.3388e-05, 0, 0
    15000, 1.32864e-05, 7.31339e-05, 0, 0
    15100, 1.32941e-05, 7.28828e-05, 0, 0
    15200, 1.33019e-05, 7.26347e-05, 0, 0
    15300, 1.33098e-05, 7.23895e-05, 0, 0
    15400, 1.33179e-05, 7.21471e-05, 0, 0
    15500, 1.33259e-05, 7.19076e-05, 0, 0
    15600, 1.33341e-05, 7.16708e-05, 0, 0
    15700, 1.33422e-05, 7.14368e-05, 0, 0
    15800, 1.33505e-05, 7.12054e-05, 0, 0
    15900, 1.33693e-05, 7.04706e-05, 0, 0
    16000, 1.33687e-05, 7.05231e-05, 0, 0
    16100, 1.33762e-05, 7.03811e-05, 0, 0
    16200, 1.33841e-05, 7.02139e-05, 0, 0
    16300, 1.33922e-05, 7.00277e-05, 0, 0
    16400, 1.34005e-05, 6.98312e-05, 0, 0
    16500, 1.34089e-05, 6.96295e-05, 0, 0
    16600, 1.34364e-05, 6.9427e-05, 0, 0
    16700, 1.3428e-05, 6.89961e-05, 0, 0
    16800, 1.34354e-05, 6.88651e-05, 0, 0
    16900, 1.34434e-05, 6.87177e-05, 0, 0
    17000, 1.34515e-05, 6.85508e-05, 0, 0
    17100, 1.34598e-05, 6.83723e-05, 0, 0
    17200, 1.34766e-05, 6.76357e-05, 0, 0
    17300, 1.34779e-05, 6.77833e-05, 0, 0
    17400, 1.34859e-05, 6.76757e-05, 0, 0
    17500, 1.3494e-05, 6.75369e-05, 0, 0
    17600, 1.3502e-05, 6.73801e-05, 0, 0
    17700, 1.35194e-05, 6.66909e-05, 0, 0
    17800, 1.35212e-05, 6.68221e-05, 0, 0
    17900, 1.35291e-05, 6.6725e-05, 0, 0
    18000, 1.35373e-05, 6.65986e-05, 0, 0
    18100, 1.35457e-05, 6.64535e-05, 0, 0
    18200, 1.35579e-05, 6.59867e-05, 0, 0
    18300, 1.35644e-05, 6.59493e-05, 0, 0
    18400, 1.35723e-05, 6.58534e-05, 0, 0
    18500, 1.35806e-05, 6.57281e-05, 0, 0
    18600, 1.3594e-05, 6.51166e-05, 0, 0
    18700, 1.35993e-05, 6.52357e-05, 0, 0
    18800, 1.36073e-05, 6.51564e-05, 0, 0
    18900, 1.36155e-05, 6.50434e-05, 0, 0
    19000, 1.36281e-05, 6.4534e-05, 0, 0
    19100, 1.36343e-05, 6.45802e-05, 0, 0
    19200, 1.36423e-05, 6.45049e-05, 0, 0
    19300, 1.36505e-05, 6.43973e-05, 0, 0
    19400, 1.36623e-05, 6.4053e-05, 0, 0
    19500, 1.36689e-05, 6.39766e-05, 0, 0
    19600, 1.36768e-05, 6.38937e-05, 0, 0
    19700, 1.3691e-05, 6.33097e-05, 0, 0
    19800, 1.36952e-05, 6.34653e-05, 0, 0
    19900, 1.37032e-05, 6.34076e-05, 0, 0
--> FOAM Warning : Max iterations reached within momentum loop
Max sigmaEq (von Mises stress) = 4.29708e+06
ExecutionTime = 628.79 s  ClockTime = 629 s

Jacobian determinant max. 1.03837 min. 0.947785

--> FOAM Warning : 
    From function nonLinearGeometryTotalLagrangian::end()
    in file solidModels/solidModel/solidModel.C at line 1741
    The maximum momentum correctors were reached in 30 time-steps


End

