/*---------------------------------------------------------------------------*\
| =========                 |                                                 |
| \\      /  F ield         | foam-extend: Open Source CFD                    |
|  \\    /   O peration     | Version:     4.1                                |
|   \\  /    A nd           | Web:         http://www.foam-extend.org         |
|    \\/     M anipulation  | For copyright notice see file Copyright         |
\*---------------------------------------------------------------------------*/
Build  : 4.1-70b064d0f326
Exec   : solids4Foam
Date   : Dec 15 2022
Time   : 12:16:15
Host   : "iloliveira"
PID    : 262710
CtrlDict : "/home/iloliveira/foam/solids4foam-fork-fe41/tutorials/solids/hyperelasticity/cylinderCrushBijelonja/system/controlDict"
Case   : /home/iloliveira/foam/solids4foam-fork-fe41/tutorials/solids/hyperelasticity/cylinderCrushBijelonja
nProcs : 1
sigFpe : Enabling floating point exception trapping (FOAM_SIGFPE).
allowSystemOperations : Disallowing user-supplied system call operations

// * * * * * * * * * * * * * * * * * * * * * * * * * * * * * * * * * * * * * //
Create time

/*---------------------------------------------------------------------------*\
|    For further information on the solids4Foam toolbox implementations,      |
|    please see the following publications:                                   |
|                                                                             |
|    P. Cardiff, A Karac, P. De Jaeger, H. Jasak, J. Nagy, A. Ivankovic,      |
|    Z. Tukovic: An open-source finite volume toolbox for solid mechanics and |
|    fluid-solid interaction simulations. arXiv:1808.10736v2, 2018, available |
|    at https://arxiv.org/abs/1808.10736.                                     |
|                                                                             |
|    Z. Tukovic, A. Karac, P. Cardiff, H. Jasak, A. Ivankovic: OpenFOAM       |
|    finite volume solver for fluid-solid interaction.  Transactions of       |
|    Famena, 42 (3), pp. 1-31, 2018, 10.21278/TOF.42301.                      |
\*---------------------------------------------------------------------------*/

Selecting physicsModel solidModel
Selecting solidModel nonLinearGeometryTotalLagrangianTotalDisplacement
Selecting dynamicFvMesh staticFvMesh
Creating fixedDisplacement boundary condition
    displacement is time-varying
Symmetry boundary condition with non-orthogonal correction
Symmetry boundary condition with non-orthogonal correction
    under-relaxation method: fixed
Creating the mechanicalModel
Selecting mechanical law MooneyRivlinElastic
    Laplacian equation will be solved for pressure
    pressureSmoothingScaleFactor: 100
Material properties 
    max(c10) = 293000
    max(c01) = 177000
    max(c11) = 0
    max(mu) = 940000
    max(K) = 1.41e+09
Reading individual shadowPatch
    solidContact: topContact
        useNewPointDistanceMethod: false
        projectPointsToPatchBoundary: false
        usePrevCandidateMasterNeighbors: false
    Normal contact model: standardPenalty
    Initialising stored previous normalPenaltyFactors
    Friction contact model: frictionless
    normal penalty factor: 8.63995e+10
Creating displacement function object
    region = region0
    distance from specified point is 0
Creating forceCylinder function object
Creating Jacob function object
Jacobian determinant max. 1 min. 1

Time = 1

Evolving solid solver
Solving the total Lagrangian form of the momentum equation for D
setCellDisplacements: reading cellDisplacements
    Corr, res, relRes, matRes, iters
    100, 0.000271451, 0.00304849, 0, 0
    200, 0.000156802, 0.0008419, 0, 0
    300, 0.00012187, 0.000675264, 0, 0
    400, 9.99632e-05, 0.000731699, 0, 0
    500, 8.42354e-05, 0.000716067, 0, 0
    600, 7.56672e-05, 0.000830375, 0, 0
    700, 6.72217e-05, 0.000852631, 0, 0
    800, 6.01553e-05, 0.000846228, 0, 0
    900, 5.34982e-05, 0.000812017, 0, 0
    1000, 4.78774e-05, 0.000756376, 0, 0
    1100, 4.24772e-05, 0.000682309, 0, 0
    1200, 3.76651e-05, 0.000597279, 0, 0
    1300, 3.33585e-05, 0.00052527, 0, 0
    1400, 3.01623e-05, 0.000451653, 0, 0
    1500, 2.80218e-05, 0.000379432, 0, 0
    1600, 2.65827e-05, 0.00031205, 0, 0
    1700, 2.57494e-05, 0.000249272, 0, 0
    1800, 2.52101e-05, 0.000201821, 0, 0
    1900, 2.47363e-05, 0.000171166, 0, 0
    2000, 2.42016e-05, 0.000148113, 0, 0
    2100, 2.34411e-05, 0.000131188, 0, 0
    2200, 2.26032e-05, 0.000118957, 0, 0
    2300, 2.16752e-05, 0.000110821, 0, 0
    2400, 2.06798e-05, 0.000105408, 0, 0
    2500, 1.96812e-05, 0.000102119, 0, 0
    2600, 1.87124e-05, 0.000100417, 0, 0
    2700, 1.77951e-05, 9.98095e-05, 0, 0
    2800, 1.69474e-05, 9.99033e-05, 0, 0
    2900, 1.61943e-05, 0.000100417, 0, 0
    3000, 1.54418e-05, 0.00010121, 0, 0
    3100, 1.48162e-05, 0.000102813, 0, 0
    3200, 1.42399e-05, 0.000103648, 0, 0
    3300, 1.37381e-05, 0.00010435, 0, 0
    3400, 1.33102e-05, 0.000105011, 0, 0
    3500, 1.29633e-05, 0.000105463, 0, 0
    3600, 1.26773e-05, 0.000106045, 0, 0
    3700, 1.24515e-05, 0.00010707, 0, 0
    3800, 1.22064e-05, 0.000107088, 0, 0
    3900, 1.19881e-05, 0.000106495, 0, 0
    4000, 1.18495e-05, 0.000106306, 0, 0
    4100, 1.1696e-05, 0.000105917, 0, 0
    4200, 1.15571e-05, 0.000105561, 0, 0
    4300, 1.14317e-05, 0.000105217, 0, 0
    4400, 1.13665e-05, 0.000104887, 0, 0
    4500, 1.13687e-05, 0.000104567, 0, 0
    4600, 1.13238e-05, 0.000104312, 0, 0
    4700, 1.12912e-05, 0.000104129, 0, 0
    4800, 1.12784e-05, 0.000104008, 0, 0
    4900, 1.1296e-05, 0.000103939, 0, 0
    5000, 1.13284e-05, 0.000103911, 0, 0
    5100, 1.13737e-05, 0.000103943, 0, 0
    5200, 1.14321e-05, 0.000103996, 0, 0
    5300, 1.13976e-05, 0.000104061, 0, 0
    5400, 1.13494e-05, 0.000104133, 0, 0
    5500, 1.13138e-05, 0.000104206, 0, 0
    5600, 1.12847e-05, 0.000104276, 0, 0
    5700, 1.12577e-05, 0.000104343, 0, 0
    5800, 1.12317e-05, 0.000104404, 0, 0
    5900, 1.12053e-05, 0.00010446, 0, 0
    6000, 1.11785e-05, 0.00010451, 0, 0
    6100, 1.1152e-05, 0.000104555, 0, 0
    6200, 1.11269e-05, 0.000104596, 0, 0
    6300, 1.11008e-05, 0.000104643, 0, 0
    6400, 1.10747e-05, 0.000104704, 0, 0
    6500, 1.10494e-05, 0.000104778, 0, 0
    6600, 1.10246e-05, 0.000104883, 0, 0
    6700, 1.09994e-05, 0.000104997, 0, 0
    6800, 1.09731e-05, 0.000105136, 0, 0
    6900, 1.09457e-05, 0.000105271, 0, 0
    7000, 1.09168e-05, 0.000105401, 0, 0
    7100, 1.08869e-05, 0.000105555, 0, 0
    7200, 1.08554e-05, 0.000105717, 0, 0
    7300, 1.08225e-05, 0.000105874, 0, 0
    7400, 1.07882e-05, 0.000106026, 0, 0
    7500, 1.0753e-05, 0.000106172, 0, 0
    7600, 1.07161e-05, 0.000106314, 0, 0
    7700, 1.0678e-05, 0.000106453, 0, 0
    7800, 1.06387e-05, 0.000106598, 0, 0
    7900, 1.05987e-05, 0.000106737, 0, 0
    8000, 1.05579e-05, 0.000106883, 0, 0
    8100, 1.05161e-05, 0.00010704, 0, 0
    8200, 1.04733e-05, 0.000107191, 0, 0
    8300, 1.04297e-05, 0.000107337, 0, 0
    8400, 1.03854e-05, 0.000107477, 0, 0
    8500, 1.03406e-05, 0.000107612, 0, 0
    8600, 1.02952e-05, 0.000107742, 0, 0
    8700, 1.02495e-05, 0.000107867, 0, 0
    8800, 1.02029e-05, 0.000107987, 0, 0
    8900, 1.01556e-05, 0.000108103, 0, 0
    9000, 1.01075e-05, 0.000108214, 0, 0
    9100, 1.00588e-05, 0.000108321, 0, 0
    9200, 1.001e-05, 0.000108424, 0, 0
    9300, 9.96042e-06, 0.000108523, 0, 0
    9400, 9.91022e-06, 0.000108618, 0, 0
    9500, 9.85939e-06, 0.000108709, 0, 0
    9600, 9.80799e-06, 0.000108796, 0, 0
    9700, 9.75603e-06, 0.00010888, 0, 0
    9800, 9.70356e-06, 0.00010896, 0, 0
    9900, 9.65062e-06, 0.000109037, 0, 0
    10000, 9.59726e-06, 0.000109111, 0, 0
    10100, 9.54353e-06, 0.000109182, 0, 0
    10200, 9.4896e-06, 0.000109251, 0, 0
    10300, 9.43557e-06, 0.000109317, 0, 0
    10400, 9.3813e-06, 0.00010938, 0, 0
    10500, 9.32669e-06, 0.00010944, 0, 0
    10600, 9.27175e-06, 0.000109499, 0, 0
    10700, 9.23063e-06, 0.000109555, 0, 0
    10800, 9.23589e-06, 0.000109608, 0, 0
    10900, 9.24084e-06, 0.00010966, 0, 0
    11000, 9.24549e-06, 0.000109709, 0, 0
    11100, 9.24985e-06, 0.000109757, 0, 0
    11200, 9.25393e-06, 0.000109802, 0, 0
    11300, 9.25776e-06, 0.000109846, 0, 0
    11400, 9.26133e-06, 0.000109888, 0, 0
    11500, 9.26466e-06, 0.000109928, 0, 0
    11600, 9.26776e-06, 0.000109967, 0, 0
    11700, 9.28483e-06, 0.00010879, 0, 0
    11800, 9.85633e-06, 7.80812e-05, 0, 0
    11900, 9.46468e-06, 7.25246e-05, 0, 0
    12000, 9.05201e-06, 6.62666e-05, 0, 0
    12100, 8.73445e-06, 6.06006e-05, 0, 0
    12200, 8.36657e-06, 5.55324e-05, 0, 0
    12300, 7.98105e-06, 5.07024e-05, 0, 0
    12400, 7.58485e-06, 4.61848e-05, 0, 0
    12500, 7.19667e-06, 4.21293e-05, 0, 0
    12600, 6.8128e-06, 3.86459e-05, 0, 0
    12700, 6.44307e-06, 3.55627e-05, 0, 0
    12800, 6.0933e-06, 3.28465e-05, 0, 0
    12900, 5.76239e-06, 3.05069e-05, 0, 0
    13000, 5.4862e-06, 2.79087e-05, 0, 0
    13100, 5.18522e-06, 2.63135e-05, 0, 0
    13200, 4.90218e-06, 2.47915e-05, 0, 0
    13300, 4.63753e-06, 2.33163e-05, 0, 0
    13400, 4.39014e-06, 2.18821e-05, 0, 0
    13500, 4.15552e-06, 2.0487e-05, 0, 0
    13600, 3.93193e-06, 1.91401e-05, 0, 0
    13700, 3.71857e-06, 1.78506e-05, 0, 0
    13800, 3.51452e-06, 1.66269e-05, 0, 0
    13900, 3.32045e-06, 1.54752e-05, 0, 0
    14000, 3.15629e-06, 1.43267e-05, 0, 0
    14100, 2.98181e-06, 1.33589e-05, 0, 0
    14200, 2.81707e-06, 1.24485e-05, 0, 0
    14300, 2.66075e-06, 1.16381e-05, 0, 0
    14400, 2.51385e-06, 1.08852e-05, 0, 0
    14500, 2.35676e-06, 1.03009e-05, 0, 0
    14600, 2.2274e-06, 9.49262e-06, 0, 0
    14700, 2.10434e-06, 9.15312e-06, 0, 0
    14800, 1.99742e-06, 8.62589e-06, 0, 0
    14900, 1.89498e-06, 8.10039e-06, 0, 0
    15000, 1.79867e-06, 7.57171e-06, 0, 0
    15100, 1.70809e-06, 7.05672e-06, 0, 0
    15200, 1.61239e-06, 7.93737e-06, 0, 0
    15300, 1.52962e-06, 7.33343e-06, 0, 0
    15400, 1.45259e-06, 6.68716e-06, 0, 0
    15500, 1.38262e-06, 6.23073e-06, 0, 0
    15600, 1.31437e-06, 5.70666e-06, 0, 0
    15700, 1.24832e-06, 5.3123e-06, 0, 0
    15800, 1.18854e-06, 5.00686e-06, 0, 0
    15900, 1.13112e-06, 4.7115e-06, 0, 0
    16000, 1.06542e-06, 3.72508e-06, 0, 0
    16100, 1.01317e-06, 3.51735e-06, 0, 0
    16200, 9.63011e-07, 3.41415e-06, 0, 0
    16300, 9.13318e-07, 3.32787e-06, 0, 0
    16400, 8.75692e-07, 3.40528e-06, 0, 0
    16500, 8.29551e-07, 3.26918e-06, 0, 0
    16600, 7.75844e-07, 3.02552e-06, 0, 0
    16700, 7.34231e-07, 3.28101e-06, 0, 0
    16800, 6.96203e-07, 2.8214e-06, 0, 0
    16900, 6.60399e-07, 2.69493e-06, 0, 0
    17000, 6.25601e-07, 2.8411e-06, 0, 0
    17100, 5.89217e-07, 2.48316e-06, 0, 0
    17200, 5.57932e-07, 2.37421e-06, 0, 0
    17300, 5.29665e-07, 2.25357e-06, 0, 0
    17400, 5.01021e-07, 2.15118e-06, 0, 0
    17500, 4.73931e-07, 2.05232e-06, 0, 0
    17600, 4.48315e-07, 1.95586e-06, 0, 0
    17700, 4.24018e-07, 1.86214e-06, 0, 0
    17800, 4.017e-07, 1.77147e-06, 0, 0
    17900, 3.80449e-07, 1.68404e-06, 0, 0
    18000, 3.60212e-07, 1.60003e-06, 0, 0
    18100, 3.40945e-07, 1.51954e-06, 0, 0
    18200, 3.22618e-07, 1.44261e-06, 0, 0
    18300, 3.05202e-07, 1.36922e-06, 0, 0
    18400, 2.88665e-07, 1.29932e-06, 0, 0
    18500, 2.72935e-07, 1.23282e-06, 0, 0
    18600, 2.57982e-07, 1.16961e-06, 0, 0
    18700, 2.43783e-07, 1.10958e-06, 0, 0
    18800, 2.30302e-07, 1.05259e-06, 0, 0
    18900, 2.17489e-07, 9.9853e-07, 0, 0
    19000, 2.05342e-07, 9.49355e-07, 0, 0
    19100, 1.93768e-07, 8.9972e-07, 0, 0
    19200, 1.82841e-07, 8.52809e-07, 0, 0
    19300, 1.72595e-07, 7.99879e-07, 0, 0
    19400, 1.63183e-07, 7.64304e-07, 0, 0
    19500, 1.53691e-07, 7.25365e-07, 0, 0
    19600, 1.44999e-07, 6.93674e-07, 0, 0
    19700, 1.3654e-07, 6.62228e-07, 0, 0
    19800, 1.2623e-07, 6.81347e-07, 0, 0
    19900, 1.19871e-07, 6.49133e-07, 0, 0
--> FOAM Warning : Max iterations reached within momentum loop
Max sigmaEq (von Mises stress) = 99315
ExecutionTime = 17.93 s  ClockTime = 18 s

Jacobian determinant max. 1.00135 min. 0.99878

Time = 2

Evolving solid solver
Solving the total Lagrangian form of the momentum equation for D
    Corr, res, relRes, matRes, iters
    100, 0.000250621, 0.00296788, 0, 0
    200, 0.000145686, 0.000797853, 0, 0
    300, 0.000114207, 0.000711229, 0, 0
    400, 9.38691e-05, 0.000773819, 0, 0
    500, 7.93162e-05, 0.000914717, 0, 0
    600, 7.09351e-05, 0.000934593, 0, 0
    700, 6.38737e-05, 0.000964685, 0, 0
    800, 5.76116e-05, 0.000967441, 0, 0
    900, 5.25153e-05, 0.000944395, 0, 0
    1000, 4.74482e-05, 0.000897225, 0, 0
    1100, 4.18561e-05, 0.000830084, 0, 0
    1200, 3.64503e-05, 0.00074826, 0, 0
    1300, 3.19384e-05, 0.000659419, 0, 0
    1400, 2.87466e-05, 0.00057732, 0, 0
    1500, 2.69049e-05, 0.000495722, 0, 0
    1600, 2.59077e-05, 0.000433885, 0, 0
    1700, 2.52798e-05, 0.000382075, 0, 0
    1800, 2.49716e-05, 0.000340264, 0, 0
    1900, 2.4521e-05, 0.000307787, 0, 0
    2000, 2.3941e-05, 0.000283317, 0, 0
    2100, 2.31534e-05, 0.000265298, 0, 0
    2200, 2.229e-05, 0.000254091, 0, 0
    2300, 2.13783e-05, 0.000247204, 0, 0
    2400, 2.04508e-05, 0.000244723, 0, 0
    2500, 1.9497e-05, 0.000245137, 0, 0
    2600, 1.8564e-05, 0.00024547, 0, 0
    2700, 1.77483e-05, 0.000249321, 0, 0
    2800, 1.7037e-05, 0.00025583, 0, 0
    2900, 1.64017e-05, 0.00026085, 0, 0
    3000, 1.58409e-05, 0.000265248, 0, 0
    3100, 1.54044e-05, 0.000270299, 0, 0
    3200, 1.50345e-05, 0.000275353, 0, 0
    3300, 1.47022e-05, 0.000280263, 0, 0
    3400, 1.44271e-05, 0.000285137, 0, 0
    3500, 1.42723e-05, 0.000290041, 0, 0
    3600, 1.41e-05, 0.000295091, 0, 0
    3700, 1.41934e-05, 0.000300354, 0, 0
    3800, 1.43276e-05, 0.000305747, 0, 0
    3900, 1.44674e-05, 0.000311426, 0, 0
    4000, 1.46241e-05, 0.00031749, 0, 0
    4100, 1.47839e-05, 0.00032392, 0, 0
    4200, 1.49458e-05, 0.000330742, 0, 0
    4300, 1.51111e-05, 0.000337954, 0, 0
    4400, 1.5279e-05, 0.00034561, 0, 0
    4500, 1.54496e-05, 0.000353765, 0, 0
    4600, 1.56239e-05, 0.000362461, 0, 0
    4700, 1.78606e-05, 0.000267951, 0, 0
    4800, 1.62383e-05, 0.000259689, 0, 0
    4900, 1.57583e-05, 0.000242097, 0, 0
    5000, 1.50122e-05, 0.00022743, 0, 0
    5100, 1.42631e-05, 0.000210203, 0, 0
    5200, 1.36119e-05, 0.000193014, 0, 0
    5300, 1.29726e-05, 0.000176362, 0, 0
    5400, 1.23327e-05, 0.000160921, 0, 0
    5500, 1.17202e-05, 0.000146354, 0, 0
    5600, 1.11153e-05, 0.000133888, 0, 0
    5700, 1.05313e-05, 0.000122712, 0, 0
    5800, 9.98502e-06, 0.000112787, 0, 0
    5900, 9.46806e-06, 0.000104115, 0, 0
    6000, 8.97797e-06, 9.65691e-05, 0, 0
    6100, 8.51213e-06, 8.97335e-05, 0, 0
    6200, 8.06867e-06, 8.34874e-05, 0, 0
    6300, 7.64936e-06, 7.77336e-05, 0, 0
    6400, 7.24994e-06, 7.23988e-05, 0, 0
    6500, 6.86901e-06, 6.74343e-05, 0, 0
    6600, 6.50957e-06, 6.28879e-05, 0, 0
    6700, 6.16673e-06, 5.86447e-05, 0, 0
    6800, 5.88477e-06, 5.32089e-05, 0, 0
    6900, 5.56307e-06, 5.02156e-05, 0, 0
    7000, 5.25429e-06, 4.72729e-05, 0, 0
    7100, 4.96624e-06, 4.43975e-05, 0, 0
    7200, 4.6939e-06, 4.16145e-05, 0, 0
    7300, 4.43736e-06, 3.89257e-05, 0, 0
    7400, 4.19658e-06, 3.63533e-05, 0, 0
    7500, 3.96704e-06, 3.391e-05, 0, 0
    7600, 3.74806e-06, 3.1607e-05, 0, 0
    7700, 3.56042e-06, 2.93205e-05, 0, 0
    7800, 3.36313e-06, 2.73367e-05, 0, 0
    7900, 3.17733e-06, 2.55126e-05, 0, 0
    8000, 3.00082e-06, 2.38169e-05, 0, 0
    8100, 2.83386e-06, 2.2292e-05, 0, 0
    8200, 2.68231e-06, 2.01999e-05, 0, 0
    8300, 2.52683e-06, 1.92971e-05, 0, 0
    8400, 2.38895e-06, 1.85935e-05, 0, 0
    8500, 2.24478e-06, 1.76009e-05, 0, 0
    8600, 2.12798e-06, 1.65334e-05, 0, 0
    8700, 2.01997e-06, 1.55286e-05, 0, 0
    8800, 1.91818e-06, 1.45206e-05, 0, 0
    8900, 1.8219e-06, 1.35478e-05, 0, 0
    9000, 1.73955e-06, 1.40609e-05, 0, 0
    9100, 1.6489e-06, 1.30963e-05, 0, 0
    9200, 1.5673e-06, 1.18514e-05, 0, 0
    9300, 1.489e-06, 1.06534e-05, 0, 0
    9400, 1.41357e-06, 1.01691e-05, 0, 0
    9500, 1.33729e-06, 9.25829e-06, 0, 0
    9600, 1.27168e-06, 8.81452e-06, 0, 0
    9700, 1.20928e-06, 8.44888e-06, 0, 0
    9800, 1.14965e-06, 8.18143e-06, 0, 0
    9900, 1.09071e-06, 7.73659e-06, 0, 0
    10000, 1.03735e-06, 7.50811e-06, 0, 0
    10100, 9.81823e-07, 7.30036e-06, 0, 0
    10200, 9.33657e-07, 7.04958e-06, 0, 0
    10300, 8.84776e-07, 6.80106e-06, 0, 0
    10400, 8.39854e-07, 5.96165e-06, 0, 0
    10500, 7.9317e-07, 5.78614e-06, 0, 0
    10600, 7.52061e-07, 5.97173e-06, 0, 0
    10700, 7.07597e-07, 5.77742e-06, 0, 0
    10800, 6.72002e-07, 4.84655e-06, 0, 0
    10900, 6.36518e-07, 4.65457e-06, 0, 0
    11000, 6.00033e-07, 4.52559e-06, 0, 0
    11100, 5.64167e-07, 4.3575e-06, 0, 0
    11200, 5.34471e-07, 4.16314e-06, 0, 0
    11300, 5.05394e-07, 3.97473e-06, 0, 0
    11400, 4.77948e-07, 3.79212e-06, 0, 0
    11500, 4.51998e-07, 3.61378e-06, 0, 0
    11600, 4.27428e-07, 3.44028e-06, 0, 0
    11700, 4.04122e-07, 3.27226e-06, 0, 0
    11800, 3.82005e-07, 3.11017e-06, 0, 0
    11900, 3.61026e-07, 2.95438e-06, 0, 0
    12000, 3.41135e-07, 2.80509e-06, 0, 0
    12100, 3.22259e-07, 2.66241e-06, 0, 0
    12200, 3.04376e-07, 2.52632e-06, 0, 0
    12300, 2.8742e-07, 2.39671e-06, 0, 0
    12400, 2.71344e-07, 2.27343e-06, 0, 0
    12500, 2.56147e-07, 2.15627e-06, 0, 0
    12600, 2.41795e-07, 2.045e-06, 0, 0
    12700, 2.28197e-07, 1.93939e-06, 0, 0
    12800, 2.15331e-07, 1.8392e-06, 0, 0
    12900, 2.02968e-07, 1.74301e-06, 0, 0
    13000, 1.91378e-07, 1.65762e-06, 0, 0
    13100, 1.80636e-07, 1.57022e-06, 0, 0
    13200, 1.7014e-07, 1.47636e-06, 0, 0
    13300, 1.60535e-07, 1.40196e-06, 0, 0
    13400, 1.5137e-07, 1.3369e-06, 0, 0
    13500, 1.42497e-07, 1.2687e-06, 0, 0
    13600, 1.33882e-07, 1.21007e-06, 0, 0
    13700, 1.25916e-07, 1.15468e-06, 0, 0
    13800, 1.18157e-07, 1.19004e-06, 0, 0
    13900, 1.1155e-07, 1.13019e-06, 0, 0
    14000, 1.04822e-07, 1.08034e-06, 0, 0
    14100, 9.84996e-08, 1.02786e-06, 0, 0
    14200, 9.25206e-08, 9.75808e-07, 0, 0
    14300, 8.68957e-08, 9.25213e-07, 0, 0
    14400, 8.15976e-08, 8.76934e-07, 0, 0
    14500, 7.65822e-08, 8.31443e-07, 0, 0
    14600, 7.18476e-08, 7.88899e-07, 0, 0
    14700, 6.73784e-08, 7.50005e-07, 0, 0
    14800, 6.31641e-08, 7.13685e-07, 0, 0
    14900, 5.91965e-08, 6.79681e-07, 0, 0
    15000, 5.54648e-08, 6.47735e-07, 0, 0
    15100, 5.19664e-08, 6.17069e-07, 0, 0
    15200, 4.86397e-08, 5.89827e-07, 0, 0
    15300, 4.558e-08, 5.63162e-07, 0, 0
    15400, 4.26991e-08, 5.34657e-07, 0, 0
    15500, 3.98882e-08, 5.09399e-07, 0, 0
    15600, 3.73145e-08, 4.85482e-07, 0, 0
    15700, 3.49499e-08, 4.62792e-07, 0, 0
    15800, 3.27276e-08, 4.40474e-07, 0, 0
    15900, 3.06383e-08, 4.18894e-07, 0, 0
    16000, 2.86742e-08, 3.98042e-07, 0, 0
    16100, 2.68236e-08, 3.77845e-07, 0, 0
    16200, 2.50679e-08, 3.60616e-07, 0, 0
    16300, 2.34516e-08, 3.42207e-07, 0, 0
    16400, 2.1994e-08, 3.2358e-07, 0, 0
    16500, 2.06603e-08, 3.06682e-07, 0, 0
    16600, 1.90523e-08, 2.43441e-07, 0, 0
    16700, 1.78922e-08, 2.26452e-07, 0, 0
    16800, 1.67578e-08, 2.13076e-07, 0, 0
    16900, 1.57219e-08, 2.00228e-07, 0, 0
    17000, 1.47432e-08, 1.88308e-07, 0, 0
    17100, 1.38233e-08, 1.77237e-07, 0, 0
    17200, 1.29771e-08, 1.66883e-07, 0, 0
    17300, 1.21933e-08, 1.57198e-07, 0, 0
    17400, 1.14733e-08, 1.48107e-07, 0, 0
    17500, 1.08199e-08, 1.39553e-07, 0, 0
    17600, 1.02089e-08, 1.31486e-07, 0, 0
    The solver residual has converged
    17634, 9.99959e-09, 1.28842e-07, 0, 0

Max sigmaEq (von Mises stress) = 176564
ExecutionTime = 34.09 s  ClockTime = 34 s

Jacobian determinant max. 1.00475 min. 0.995727

Time = 3

Evolving solid solver
Solving the total Lagrangian form of the momentum equation for D
    Corr, res, relRes, matRes, iters
    100, 0.000186085, 0.00286754, 0, 0
    200, 0.000126602, 0.000766571, 0, 0
    300, 0.000103654, 0.000780638, 0, 0
    400, 8.36753e-05, 0.000904078, 0, 0
    500, 7.18716e-05, 0.000994037, 0, 0
    600, 6.24486e-05, 0.00105737, 0, 0
    700, 5.48885e-05, 0.00110242, 0, 0
    800, 4.81455e-05, 0.00111927, 0, 0
    900, 4.21649e-05, 0.00110978, 0, 0
    1000, 3.68223e-05, 0.00107487, 0, 0
    1100, 3.22596e-05, 0.00101772, 0, 0
    1200, 2.83796e-05, 0.000942255, 0, 0
    1300, 2.56799e-05, 0.000854383, 0, 0
    1400, 2.43308e-05, 0.000765249, 0, 0
    1500, 2.38407e-05, 0.000694, 0, 0
    1600, 2.36065e-05, 0.000635115, 0, 0
    1700, 2.33552e-05, 0.000586827, 0, 0
    1800, 2.3004e-05, 0.000549317, 0, 0
    1900, 2.26037e-05, 0.000522467, 0, 0
    2000, 2.21469e-05, 0.000509902, 0, 0
    2100, 2.15236e-05, 0.000503135, 0, 0
    2200, 2.09664e-05, 0.000502468, 0, 0
    2300, 2.05443e-05, 0.000507328, 0, 0
    2400, 2.01959e-05, 0.000517431, 0, 0
    2500, 1.99914e-05, 0.000532577, 0, 0
    2600, 1.9847e-05, 0.00055293, 0, 0
    2700, 1.97626e-05, 0.000577979, 0, 0
    2800, 1.99165e-05, 0.000456081, 0, 0
    2900, 1.94932e-05, 0.000413257, 0, 0
    3000, 1.83767e-05, 0.000396994, 0, 0
    3100, 1.75701e-05, 0.000382977, 0, 0
    3200, 1.66655e-05, 0.000364986, 0, 0
    3300, 1.58043e-05, 0.000341257, 0, 0
    3400, 1.49644e-05, 0.000315989, 0, 0
    3500, 1.41749e-05, 0.00029132, 0, 0
    3600, 1.34323e-05, 0.0002676, 0, 0
    3700, 1.27331e-05, 0.000245551, 0, 0
    3800, 1.20738e-05, 0.00022562, 0, 0
    3900, 1.14364e-05, 0.000208077, 0, 0
    4000, 1.08529e-05, 0.000191174, 0, 0
    4100, 1.02885e-05, 0.000176585, 0, 0
    4200, 9.74905e-06, 0.000163033, 0, 0
    4300, 9.22753e-06, 0.000150975, 0, 0
    4400, 8.73882e-06, 0.000139968, 0, 0
    4500, 8.27859e-06, 0.000129746, 0, 0
    4600, 7.84367e-06, 0.000120333, 0, 0
    4700, 7.42988e-06, 0.000111779, 0, 0
    4800, 7.03524e-06, 0.000103827, 0, 0
    4900, 6.66086e-06, 9.64388e-05, 0, 0
    5000, 6.30283e-06, 8.95777e-05, 0, 0
    5100, 5.96431e-06, 8.32097e-05, 0, 0
    5200, 5.64272e-06, 7.73022e-05, 0, 0
    5300, 5.33799e-06, 7.18238e-05, 0, 0
    5400, 5.04757e-06, 6.6768e-05, 0, 0
    5500, 4.77505e-06, 6.2135e-05, 0, 0
    5600, 4.51474e-06, 5.78542e-05, 0, 0
    5700, 4.26739e-06, 5.38783e-05, 0, 0
    5800, 4.05555e-06, 4.92939e-05, 0, 0
    5900, 3.82453e-06, 4.63994e-05, 0, 0
    6000, 3.60648e-06, 4.36249e-05, 0, 0
    6100, 3.40318e-06, 4.09222e-05, 0, 0
    6200, 3.2124e-06, 3.83213e-05, 0, 0
    6300, 3.0343e-06, 3.58256e-05, 0, 0
    6400, 2.8659e-06, 3.34519e-05, 0, 0
    6500, 2.72053e-06, 3.10874e-05, 0, 0
    6600, 2.56855e-06, 2.90026e-05, 0, 0
    6700, 2.42527e-06, 2.70772e-05, 0, 0
    6800, 2.29001e-06, 2.528e-05, 0, 0
    6900, 2.16212e-06, 2.36163e-05, 0, 0
    7000, 2.04205e-06, 2.21149e-05, 0, 0
    7100, 1.92932e-06, 2.05569e-05, 0, 0
    7200, 1.82044e-06, 1.96208e-05, 0, 0
    7300, 1.72247e-06, 1.85946e-05, 0, 0
    7400, 1.62017e-06, 1.75074e-05, 0, 0
    7500, 1.5381e-06, 1.64358e-05, 0, 0
    7600, 1.4599e-06, 1.53892e-05, 0, 0
    7700, 1.38593e-06, 1.43651e-05, 0, 0
    7800, 1.31575e-06, 1.33897e-05, 0, 0
    7900, 1.25393e-06, 1.39758e-05, 0, 0
    8000, 1.18813e-06, 1.27833e-05, 0, 0
    8100, 1.1278e-06, 1.18047e-05, 0, 0
    8200, 1.07211e-06, 1.08608e-05, 0, 0
    8300, 1.01834e-06, 1.01706e-05, 0, 0
    8400, 9.63489e-07, 9.36649e-06, 0, 0
    8500, 9.16328e-07, 9.05414e-06, 0, 0
    8600, 8.70912e-07, 8.72237e-06, 0, 0
    8700, 8.29018e-07, 8.43166e-06, 0, 0
    8800, 7.85416e-07, 8.17776e-06, 0, 0
    8900, 7.46726e-07, 7.72009e-06, 0, 0
    9000, 7.09193e-07, 7.4346e-06, 0, 0
    9100, 6.72332e-07, 7.13869e-06, 0, 0
    9200, 6.37062e-07, 6.85383e-06, 0, 0
    9300, 6.03837e-07, 6.06175e-06, 0, 0
    9400, 5.7202e-07, 5.81021e-06, 0, 0
    9500, 5.40715e-07, 6.07319e-06, 0, 0
    9600, 5.07528e-07, 5.87423e-06, 0, 0
    9700, 4.84345e-07, 4.91223e-06, 0, 0
    9800, 4.58149e-07, 4.72756e-06, 0, 0
    9900, 4.32257e-07, 4.57021e-06, 0, 0
    10000, 4.0684e-07, 4.42285e-06, 0, 0
    10100, 3.84928e-07, 4.22604e-06, 0, 0
    10200, 3.63747e-07, 4.04307e-06, 0, 0
    10300, 3.43949e-07, 3.85741e-06, 0, 0
    10400, 3.25228e-07, 3.67531e-06, 0, 0
    10500, 3.07486e-07, 3.49835e-06, 0, 0
    10600, 2.90681e-07, 3.32683e-06, 0, 0
    10700, 2.74747e-07, 3.16127e-06, 0, 0
    10800, 2.59639e-07, 3.00211e-06, 0, 0
    10900, 2.45318e-07, 2.84963e-06, 0, 0
    11000, 2.31738e-07, 2.70393e-06, 0, 0
    11100, 2.1888e-07, 2.56502e-06, 0, 0
    11200, 2.06734e-07, 2.43279e-06, 0, 0
    11300, 1.95224e-07, 2.30708e-06, 0, 0
    11400, 1.84323e-07, 2.18765e-06, 0, 0
    11500, 1.7399e-07, 2.07428e-06, 0, 0
    11600, 1.64207e-07, 1.9667e-06, 0, 0
    11700, 1.54947e-07, 1.86467e-06, 0, 0
    11800, 1.46174e-07, 1.76793e-06, 0, 0
    11900, 1.37618e-07, 1.68029e-06, 0, 0
    12000, 1.29917e-07, 1.59132e-06, 0, 0
    12100, 1.22523e-07, 1.50724e-06, 0, 0
    12200, 1.15603e-07, 1.41583e-06, 0, 0
    12300, 1.08899e-07, 1.34963e-06, 0, 0
    12400, 1.02693e-07, 1.28057e-06, 0, 0
    12500, 9.67021e-08, 1.21918e-06, 0, 0
    12600, 9.0695e-08, 1.16413e-06, 0, 0
    12700, 8.52787e-08, 1.10933e-06, 0, 0
    12800, 8.0252e-08, 1.13223e-06, 0, 0
    12900, 7.53724e-08, 1.09296e-06, 0, 0
    13000, 7.08766e-08, 1.03465e-06, 0, 0
    13100, 6.65523e-08, 9.82814e-07, 0, 0
    13200, 6.25204e-08, 9.31774e-07, 0, 0
    13300, 5.87092e-08, 8.82583e-07, 0, 0
    13400, 5.50978e-08, 8.35944e-07, 0, 0
    13500, 5.16826e-08, 7.92523e-07, 0, 0
    13600, 4.84605e-08, 7.52485e-07, 0, 0
    13700, 4.5422e-08, 7.15068e-07, 0, 0
    13800, 4.25617e-08, 6.80113e-07, 0, 0
    13900, 3.98687e-08, 6.47384e-07, 0, 0
    14000, 3.73401e-08, 6.16619e-07, 0, 0
    14100, 3.49749e-08, 5.88493e-07, 0, 0
    14200, 3.27422e-08, 5.60852e-07, 0, 0
    14300, 3.06426e-08, 5.35028e-07, 0, 0
    14400, 2.86857e-08, 5.09659e-07, 0, 0
    14500, 2.67906e-08, 4.83043e-07, 0, 0
    14600, 2.50558e-08, 4.59996e-07, 0, 0
    14700, 2.34669e-08, 4.38128e-07, 0, 0
    14800, 2.19656e-08, 4.16721e-07, 0, 0
    14900, 2.05519e-08, 3.96074e-07, 0, 0
    15000, 1.92272e-08, 3.76163e-07, 0, 0
    15100, 1.79581e-08, 3.58988e-07, 0, 0
    15200, 1.6795e-08, 3.4057e-07, 0, 0
    15300, 1.5725e-08, 3.22187e-07, 0, 0
    15400, 1.47811e-08, 3.05362e-07, 0, 0
    15500, 1.38623e-08, 2.89215e-07, 0, 0
    15600, 1.27894e-08, 2.26502e-07, 0, 0
    15700, 1.19951e-08, 2.11737e-07, 0, 0
    15800, 1.12455e-08, 1.99245e-07, 0, 0
    15900, 1.05501e-08, 1.87089e-07, 0, 0
    The solver residual has converged
    15978, 9.99388e-09, 1.77437e-07, 0, 0

Max sigmaEq (von Mises stress) = 239286
ExecutionTime = 48.33 s  ClockTime = 49 s

Jacobian determinant max. 1.00851 min. 0.992151

Time = 4

Evolving solid solver
Solving the total Lagrangian form of the momentum equation for D
    Corr, res, relRes, matRes, iters
    100, 0.000154497, 0.00276481, 0, 0
    200, 0.000103947, 0.000754508, 0, 0
    300, 8.57501e-05, 0.000849842, 0, 0
    400, 6.98651e-05, 0.00106289, 0, 0
    500, 5.96489e-05, 0.00110904, 0, 0
    600, 5.20205e-05, 0.00118924, 0, 0
    700, 4.57989e-05, 0.0012481, 0, 0
    800, 4.05112e-05, 0.00128115, 0, 0
    900, 3.57685e-05, 0.00128779, 0, 0
    1000, 3.15322e-05, 0.00126759, 0, 0
    1100, 2.80251e-05, 0.00122294, 0, 0
    1200, 2.61362e-05, 0.00114296, 0, 0
    1300, 2.58539e-05, 0.00105874, 0, 0
    1400, 2.59393e-05, 0.000983772, 0, 0
    1500, 2.60131e-05, 0.000928056, 0, 0
    1600, 2.62308e-05, 0.000885352, 0, 0
    1700, 2.62687e-05, 0.00085481, 0, 0
    1800, 2.61227e-05, 0.000841068, 0, 0
    1900, 2.59957e-05, 0.000847336, 0, 0
    2000, 2.55949e-05, 0.00063918, 0, 0
    2100, 2.43735e-05, 0.000624627, 0, 0
    2200, 2.26425e-05, 0.000593719, 0, 0
    2300, 2.12495e-05, 0.000568067, 0, 0
    2400, 1.9879e-05, 0.000541054, 0, 0
    2500, 1.85362e-05, 0.000516116, 0, 0
    2600, 1.73746e-05, 0.000483447, 0, 0
    2700, 1.62909e-05, 0.000449076, 0, 0
    2800, 1.53248e-05, 0.000409956, 0, 0
    2900, 1.44536e-05, 0.000375143, 0, 0
    3000, 1.36556e-05, 0.000344639, 0, 0
    3100, 1.28909e-05, 0.000317744, 0, 0
    3200, 1.21809e-05, 0.000295629, 0, 0
    3300, 1.15141e-05, 0.000274369, 0, 0
    3400, 1.08939e-05, 0.000251181, 0, 0
    3500, 1.02678e-05, 0.00023334, 0, 0
    3600, 9.70949e-06, 0.00021426, 0, 0
    3700, 9.18775e-06, 0.000197344, 0, 0
    3800, 8.67846e-06, 0.000181645, 0, 0
    3900, 8.19089e-06, 0.000167086, 0, 0
    4000, 7.72522e-06, 0.000153506, 0, 0
    4100, 7.27931e-06, 0.000140916, 0, 0
    4200, 6.8542e-06, 0.000129306, 0, 0
    4300, 6.45285e-06, 0.000118966, 0, 0
    4400, 6.07312e-06, 0.00010951, 0, 0
    4500, 5.71659e-06, 0.000100856, 0, 0
    4600, 5.3875e-06, 9.29412e-05, 0, 0
    4700, 5.07768e-06, 8.57003e-05, 0, 0
    4800, 4.78661e-06, 7.9072e-05, 0, 0
    4900, 4.51069e-06, 7.29994e-05, 0, 0
    5000, 4.25048e-06, 6.7502e-05, 0, 0
    5100, 4.00444e-06, 6.24922e-05, 0, 0
    5200, 3.773e-06, 5.78757e-05, 0, 0
    5300, 3.57484e-06, 5.24874e-05, 0, 0
    5400, 3.35962e-06, 4.92319e-05, 0, 0
    5500, 3.15826e-06, 4.61017e-05, 0, 0
    5600, 2.9713e-06, 4.30825e-05, 0, 0
    5700, 2.7969e-06, 4.01929e-05, 0, 0
    5800, 2.63479e-06, 3.74469e-05, 0, 0
    5900, 2.49564e-06, 3.46695e-05, 0, 0
    6000, 2.35232e-06, 3.22956e-05, 0, 0
    6100, 2.21802e-06, 3.00427e-05, 0, 0
    6200, 2.09174e-06, 2.79687e-05, 0, 0
    6300, 1.97285e-06, 2.60847e-05, 0, 0
    6400, 1.86032e-06, 2.43774e-05, 0, 0
    6500, 1.74647e-06, 2.25039e-05, 0, 0
    6600, 1.63984e-06, 2.15988e-05, 0, 0
    6700, 1.55254e-06, 2.04375e-05, 0, 0
    6800, 1.47155e-06, 1.92485e-05, 0, 0
    6900, 1.39457e-06, 1.80697e-05, 0, 0
    7000, 1.32197e-06, 1.68742e-05, 0, 0
    7100, 1.2535e-06, 1.57039e-05, 0, 0
    7200, 1.18142e-06, 1.76169e-05, 0, 0
    7300, 1.11891e-06, 1.61275e-05, 0, 0
    7400, 1.06117e-06, 1.49535e-05, 0, 0
    7500, 1.0072e-06, 1.38347e-05, 0, 0
    7600, 9.59146e-07, 1.29672e-05, 0, 0
    7700, 9.07857e-07, 1.21303e-05, 0, 0
    7800, 8.64442e-07, 1.13974e-05, 0, 0
    7900, 8.22379e-07, 1.08043e-05, 0, 0
    8000, 7.83417e-07, 1.04739e-05, 0, 0
    8100, 7.45141e-07, 1.00241e-05, 0, 0
    8200, 7.0582e-07, 8.38208e-06, 0, 0
    8300, 6.68506e-07, 8.19908e-06, 0, 0
    8400, 6.31487e-07, 7.38841e-06, 0, 0
    8500, 6.00025e-07, 8.50391e-06, 0, 0
    8600, 5.68569e-07, 8.16866e-06, 0, 0
    8700, 5.34765e-07, 6.71851e-06, 0, 0
    8800, 5.1226e-07, 6.75753e-06, 0, 0
    8900, 4.83501e-07, 6.13814e-06, 0, 0
    9000, 4.5722e-07, 6.76152e-06, 0, 0
    9100, 4.32966e-07, 5.73117e-06, 0, 0
    9200, 4.06926e-07, 5.99522e-06, 0, 0
    9300, 3.87093e-07, 5.2311e-06, 0, 0
    9400, 3.6506e-07, 5.08175e-06, 0, 0
    9500, 3.45041e-07, 4.87167e-06, 0, 0
    9600, 3.26674e-07, 4.61883e-06, 0, 0
    9700, 3.0888e-07, 4.40285e-06, 0, 0
    9800, 2.92029e-07, 4.19543e-06, 0, 0
    9900, 2.76069e-07, 3.99339e-06, 0, 0
    10000, 2.60934e-07, 3.79799e-06, 0, 0
    10100, 2.466e-07, 3.60995e-06, 0, 0
    10200, 2.33081e-07, 3.4296e-06, 0, 0
    10300, 2.20247e-07, 3.25703e-06, 0, 0
    10400, 2.08072e-07, 3.09225e-06, 0, 0
    10500, 1.96525e-07, 2.93514e-06, 0, 0
    10600, 1.85576e-07, 2.78553e-06, 0, 0
    10700, 1.75201e-07, 2.64319e-06, 0, 0
    10800, 1.65366e-07, 2.50786e-06, 0, 0
    10900, 1.56053e-07, 2.37925e-06, 0, 0
    11000, 1.47235e-07, 2.25709e-06, 0, 0
    11100, 1.38886e-07, 2.14108e-06, 0, 0
    11200, 1.30986e-07, 2.03094e-06, 0, 0
    11300, 1.2331e-07, 1.93115e-06, 0, 0
    11400, 1.16348e-07, 1.82956e-06, 0, 0
    11500, 1.09678e-07, 1.7336e-06, 0, 0
    11600, 1.03119e-07, 1.63478e-06, 0, 0
    11700, 9.7367e-08, 1.55522e-06, 0, 0
    11800, 9.16608e-08, 1.47804e-06, 0, 0
    11900, 8.63426e-08, 1.40205e-06, 0, 0
    12000, 8.11174e-08, 1.33596e-06, 0, 0
    12100, 7.62237e-08, 1.27191e-06, 0, 0
    12200, 7.1668e-08, 1.20966e-06, 0, 0
    12300, 6.73204e-08, 1.15021e-06, 0, 0
    12400, 6.27832e-08, 1.17829e-06, 0, 0
    12500, 5.9143e-08, 1.06617e-06, 0, 0
    12600, 5.55359e-08, 9.98426e-07, 0, 0
    12700, 5.20858e-08, 1.01232e-06, 0, 0
    12800, 4.87267e-08, 9.40489e-07, 0, 0
    12900, 4.58542e-08, 8.60208e-07, 0, 0
    13000, 4.27511e-08, 7.468e-07, 0, 0
    13100, 4.017e-08, 8.07548e-07, 0, 0
    13200, 3.82113e-08, 7.65487e-07, 0, 0
    13300, 3.51831e-08, 6.87903e-07, 0, 0
    13400, 3.29098e-08, 6.00965e-07, 0, 0
    13500, 3.08232e-08, 5.68713e-07, 0, 0
    13600, 2.88445e-08, 5.37978e-07, 0, 0
    13700, 2.6973e-08, 5.13698e-07, 0, 0
    13800, 2.51673e-08, 4.90873e-07, 0, 0
    13900, 2.351e-08, 4.66819e-07, 0, 0
    14000, 2.19537e-08, 4.44127e-07, 0, 0
    14100, 2.04933e-08, 4.22517e-07, 0, 0
    14200, 1.91234e-08, 4.01856e-07, 0, 0
    14300, 1.78418e-08, 3.82072e-07, 0, 0
    14400, 1.66462e-08, 3.63107e-07, 0, 0
    14500, 1.556e-08, 3.433e-07, 0, 0
    14600, 1.44805e-08, 3.25818e-07, 0, 0
    14700, 1.35055e-08, 3.09431e-07, 0, 0
    14800, 1.25894e-08, 2.97833e-07, 0, 0
    14900, 1.1722e-08, 2.80845e-07, 0, 0
    15000, 1.09384e-08, 2.65978e-07, 0, 0
    15100, 1.02254e-08, 2.50723e-07, 0, 0
    The solver residual has converged
    15134, 9.99147e-09, 2.46246e-07, 0, 0

Max sigmaEq (von Mises stress) = 295503
ExecutionTime = 61.91 s  ClockTime = 62 s

Jacobian determinant max. 1.00545 min. 0.9926

Time = 5

Evolving solid solver
Solving the total Lagrangian form of the momentum equation for D
    Corr, res, relRes, matRes, iters
    100, 0.000136416, 0.00267407, 0, 0
    200, 8.92045e-05, 0.000771556, 0, 0
    300, 7.3724e-05, 0.000944634, 0, 0
    400, 6.20217e-05, 0.00111623, 0, 0
    500, 5.32853e-05, 0.00122929, 0, 0
    600, 4.66003e-05, 0.00132618, 0, 0
    700, 4.1232e-05, 0.00139955, 0, 0
    800, 3.65922e-05, 0.00144697, 0, 0
    900, 3.24152e-05, 0.00146805, 0, 0
    1000, 2.87286e-05, 0.00145065, 0, 0
    1100, 2.73265e-05, 0.0013883, 0, 0
    1200, 2.74678e-05, 0.00132361, 0, 0
    1300, 2.78873e-05, 0.00125135, 0, 0
    1400, 2.82734e-05, 0.00121254, 0, 0
    1500, 2.88149e-05, 0.00118568, 0, 0
    1600, 2.92248e-05, 0.00117201, 0, 0
    1700, 2.91446e-05, 0.000825325, 0, 0
    1800, 2.6525e-05, 0.000791577, 0, 0
    1900, 2.49096e-05, 0.000765928, 0, 0
    2000, 2.30259e-05, 0.00072509, 0, 0
    2100, 2.13474e-05, 0.000684181, 0, 0
    2200, 1.97392e-05, 0.000646186, 0, 0
    2300, 1.8148e-05, 0.000610485, 0, 0
    2400, 1.68175e-05, 0.000557363, 0, 0
    2500, 1.55838e-05, 0.000515215, 0, 0
    2600, 1.45384e-05, 0.000463259, 0, 0
    2700, 1.36152e-05, 0.000418581, 0, 0
    2800, 1.27394e-05, 0.000380064, 0, 0
    2900, 1.19355e-05, 0.000346891, 0, 0
    3000, 1.12057e-05, 0.000318123, 0, 0
    3100, 1.0534e-05, 0.000292085, 0, 0
    3200, 9.89953e-06, 0.000268787, 0, 0
    3300, 9.3186e-06, 0.000248262, 0, 0
    3400, 8.78767e-06, 0.000228089, 0, 0
    3500, 8.28061e-06, 0.000209712, 0, 0
    3600, 7.79672e-06, 0.000193143, 0, 0
    3700, 7.34023e-06, 0.000177896, 0, 0
    3800, 6.91397e-06, 0.000163643, 0, 0
    3900, 6.50813e-06, 0.000150389, 0, 0
    4000, 6.12237e-06, 0.000138204, 0, 0
    4100, 5.758e-06, 0.000127215, 0, 0
    4200, 5.41612e-06, 0.000117103, 0, 0
    4300, 5.09628e-06, 0.000107817, 0, 0
    4400, 4.79602e-06, 9.93026e-05, 0, 0
    4500, 4.51493e-06, 9.15022e-05, 0, 0
    4600, 4.252e-06, 8.4359e-05, 0, 0
    4700, 4.00329e-06, 7.78181e-05, 0, 0
    4800, 3.7687e-06, 7.18557e-05, 0, 0
    4900, 3.54646e-06, 6.64711e-05, 0, 0
    5000, 3.33837e-06, 6.15204e-05, 0, 0
    5100, 3.16351e-06, 5.54985e-05, 0, 0
    5200, 2.9702e-06, 5.20778e-05, 0, 0
    5300, 2.7907e-06, 4.87679e-05, 0, 0
    5400, 2.62443e-06, 4.55958e-05, 0, 0
    5500, 2.46979e-06, 4.25722e-05, 0, 0
    5600, 2.33538e-06, 3.95279e-05, 0, 0
    5700, 2.2028e-06, 3.68071e-05, 0, 0
    5800, 2.07764e-06, 3.4292e-05, 0, 0
    5900, 1.95903e-06, 3.19384e-05, 0, 0
    6000, 1.84757e-06, 2.97507e-05, 0, 0
    6100, 1.74284e-06, 2.77328e-05, 0, 0
    6200, 1.64387e-06, 2.59343e-05, 0, 0
    6300, 1.54237e-06, 2.48209e-05, 0, 0
    6400, 1.45286e-06, 2.25864e-05, 0, 0
    6500, 1.37173e-06, 2.16087e-05, 0, 0
    6600, 1.29972e-06, 2.0522e-05, 0, 0
    6700, 1.23187e-06, 1.92697e-05, 0, 0
    6800, 1.16791e-06, 1.79972e-05, 0, 0
    6900, 1.10736e-06, 1.67698e-05, 0, 0
    7000, 1.05035e-06, 1.87008e-05, 0, 0
    7100, 9.95833e-07, 1.68082e-05, 0, 0
    7200, 9.44392e-07, 1.51903e-05, 0, 0
    7300, 8.95517e-07, 1.39625e-05, 0, 0
    7400, 8.50481e-07, 1.28958e-05, 0, 0
    7500, 8.04854e-07, 1.17838e-05, 0, 0
    7600, 7.65084e-07, 1.14067e-05, 0, 0
    7700, 7.27699e-07, 1.10182e-05, 0, 0
    7800, 6.9171e-07, 1.0621e-05, 0, 0
    7900, 6.57057e-07, 1.03164e-05, 0, 0
    8000, 6.23798e-07, 1.00073e-05, 0, 0
    8100, 5.93898e-07, 9.33442e-06, 0, 0
    8200, 5.63947e-07, 9.02707e-06, 0, 0
    8300, 5.34459e-07, 8.70221e-06, 0, 0
    8400, 5.0661e-07, 8.35254e-06, 0, 0
    8500, 4.80133e-07, 7.99479e-06, 0, 0
    8600, 4.54948e-07, 7.63626e-06, 0, 0
    8700, 4.30453e-07, 7.39676e-06, 0, 0
    8800, 4.07864e-07, 6.11581e-06, 0, 0
    8900, 3.85625e-07, 6.08075e-06, 0, 0
    9000, 3.63704e-07, 5.74368e-06, 0, 0
    9100, 3.43763e-07, 6.02878e-06, 0, 0
    9200, 3.25132e-07, 5.27618e-06, 0, 0
    9300, 3.06885e-07, 5.56043e-06, 0, 0
    9400, 2.90419e-07, 4.86399e-06, 0, 0
    9500, 2.74637e-07, 4.64986e-06, 0, 0
    9600, 2.59261e-07, 4.45541e-06, 0, 0
    9700, 2.45029e-07, 4.26244e-06, 0, 0
    9800, 2.31587e-07, 4.06027e-06, 0, 0
    9900, 2.18937e-07, 3.8632e-06, 0, 0
    10000, 2.06957e-07, 3.67322e-06, 0, 0
    10100, 1.95603e-07, 3.49042e-06, 0, 0
    10200, 1.8483e-07, 3.31499e-06, 0, 0
    10300, 1.74613e-07, 3.14708e-06, 0, 0
    10400, 1.64921e-07, 2.98676e-06, 0, 0
    10500, 1.55731e-07, 2.83395e-06, 0, 0
    10600, 1.47026e-07, 2.6885e-06, 0, 0
    10700, 1.3878e-07, 2.55018e-06, 0, 0
    10800, 1.30968e-07, 2.41873e-06, 0, 0
    10900, 1.23574e-07, 2.29388e-06, 0, 0
    11000, 1.16574e-07, 2.17534e-06, 0, 0
    11100, 1.09951e-07, 2.06281e-06, 0, 0
    11200, 1.03679e-07, 1.95601e-06, 0, 0
    11300, 9.75846e-08, 1.85951e-06, 0, 0
    11400, 9.20562e-08, 1.76063e-06, 0, 0
    11500, 8.67533e-08, 1.66748e-06, 0, 0
    11600, 8.17216e-08, 1.57986e-06, 0, 0
    11700, 7.67038e-08, 1.49358e-06, 0, 0
    11800, 7.25446e-08, 1.41436e-06, 0, 0
    11900, 6.82489e-08, 1.34638e-06, 0, 0
    12000, 6.4243e-08, 1.27922e-06, 0, 0
    12100, 6.03334e-08, 1.21634e-06, 0, 0
    12200, 5.66724e-08, 1.15663e-06, 0, 0
    12300, 5.33061e-08, 1.09893e-06, 0, 0
    12400, 5.00629e-08, 1.04443e-06, 0, 0
    12500, 4.70076e-08, 9.91471e-07, 0, 0
    12600, 4.3812e-08, 9.11557e-07, 0, 0
    12700, 4.08007e-08, 9.53864e-07, 0, 0
    12800, 3.86392e-08, 8.81671e-07, 0, 0
    12900, 3.63383e-08, 7.96651e-07, 0, 0
    13000, 3.38154e-08, 7.33129e-07, 0, 0
    13100, 3.18375e-08, 7.64059e-07, 0, 0
    13200, 2.98945e-08, 6.66023e-07, 0, 0
    13300, 2.82035e-08, 6.85601e-07, 0, 0
    13400, 2.62237e-08, 6.5846e-07, 0, 0
    13500, 2.46004e-08, 6.23344e-07, 0, 0
    13600, 2.30516e-08, 5.8716e-07, 0, 0
    13700, 2.1563e-08, 5.5494e-07, 0, 0
    13800, 2.01602e-08, 5.25337e-07, 0, 0
    13900, 1.88399e-08, 4.96934e-07, 0, 0
    14000, 1.76121e-08, 4.69687e-07, 0, 0
    14100, 1.64574e-08, 4.45187e-07, 0, 0
    14200, 1.53789e-08, 4.21493e-07, 0, 0
    14300, 1.43717e-08, 3.99122e-07, 0, 0
    14400, 1.34259e-08, 3.77978e-07, 0, 0
    14500, 1.25389e-08, 3.57955e-07, 0, 0
    14600, 1.16736e-08, 3.3865e-07, 0, 0
    14700, 1.08846e-08, 3.20095e-07, 0, 0
    The solver residual has converged
    14797, 9.98966e-09, 2.69308e-07, 0, 0

Max sigmaEq (von Mises stress) = 350339
ExecutionTime = 75.18 s  ClockTime = 75 s

Jacobian determinant max. 1.00871 min. 0.993296

Time = 6

Evolving solid solver
Solving the total Lagrangian form of the momentum equation for D
    Corr, res, relRes, matRes, iters
    100, 0.000120693, 0.00259379, 0, 0
    200, 7.86434e-05, 0.000766762, 0, 0
    300, 6.57143e-05, 0.00109517, 0, 0
    400, 5.54949e-05, 0.00122673, 0, 0
    500, 4.80097e-05, 0.00136237, 0, 0
    600, 4.23024e-05, 0.00148329, 0, 0
    700, 3.75554e-05, 0.00157891, 0, 0
    800, 3.33602e-05, 0.00164665, 0, 0
    900, 2.96002e-05, 0.00166298, 0, 0
    1000, 2.81719e-05, 0.00163142, 0, 0
    1100, 2.86971e-05, 0.00159764, 0, 0
    1200, 2.9517e-05, 0.00155506, 0, 0
    1300, 3.0232e-05, 0.00153236, 0, 0
    1400, 3.1081e-05, 0.00154065, 0, 0
    1500, 2.94612e-05, 0.000958522, 0, 0
    1600, 2.68403e-05, 0.000936934, 0, 0
    1700, 2.49118e-05, 0.000865736, 0, 0
    1800, 2.30628e-05, 0.000835958, 0, 0
    1900, 2.11243e-05, 0.000778357, 0, 0
    2000, 1.9365e-05, 0.00072525, 0, 0
    2100, 1.77194e-05, 0.000678293, 0, 0
    2200, 1.62333e-05, 0.00062729, 0, 0
    2300, 1.48902e-05, 0.000566745, 0, 0
    2400, 1.36851e-05, 0.000510137, 0, 0
    2500, 1.26188e-05, 0.00045903, 0, 0
    2600, 1.16881e-05, 0.000412912, 0, 0
    2700, 1.08479e-05, 0.000372928, 0, 0
    2800, 1.00836e-05, 0.000337571, 0, 0
    2900, 9.39811e-06, 0.000306869, 0, 0
    3000, 8.78355e-06, 0.000279824, 0, 0
    3100, 8.19927e-06, 0.000255478, 0, 0
    3200, 7.66186e-06, 0.000233541, 0, 0
    3300, 7.1695e-06, 0.000212967, 0, 0
    3400, 6.71037e-06, 0.000194626, 0, 0
    3500, 6.28158e-06, 0.000177727, 0, 0
    3600, 5.87806e-06, 0.000162138, 0, 0
    3700, 5.49859e-06, 0.000147788, 0, 0
    3800, 5.14542e-06, 0.000134618, 0, 0
    3900, 4.81323e-06, 0.000122559, 0, 0
    4000, 4.50155e-06, 0.000111546, 0, 0
    4100, 4.20968e-06, 0.00010151, 0, 0
    4200, 3.93741e-06, 9.238e-05, 0, 0
    4300, 3.68358e-06, 8.4213e-05, 0, 0
    4400, 3.44824e-06, 7.69603e-05, 0, 0
    4500, 3.22765e-06, 7.03917e-05, 0, 0
    4600, 3.0224e-06, 6.45287e-05, 0, 0
    4700, 2.83045e-06, 5.92149e-05, 0, 0
    4800, 2.65224e-06, 5.43821e-05, 0, 0
    4900, 2.46954e-06, 6.30253e-05, 0, 0
    5000, 2.32612e-06, 4.54031e-05, 0, 0
    5100, 2.1741e-06, 4.5342e-05, 0, 0
    5200, 2.04885e-06, 4.45851e-05, 0, 0
    5300, 1.91968e-06, 4.1333e-05, 0, 0
    5400, 1.80772e-06, 3.66841e-05, 0, 0
    5500, 1.70567e-06, 3.23368e-05, 0, 0
    5600, 1.62149e-06, 3.54466e-05, 0, 0
    5700, 1.51144e-06, 3.25553e-05, 0, 0
    5800, 1.41459e-06, 3.2633e-05, 0, 0
    5900, 1.33799e-06, 2.66002e-05, 0, 0
    6000, 1.24513e-06, 1.64108e-05, 0, 0
    6100, 1.185e-06, 2.24191e-05, 0, 0
    6200, 1.11076e-06, 2.72854e-05, 0, 0
    6300, 1.04278e-06, 2.13892e-05, 0, 0
    6400, 9.80486e-07, 2.4074e-05, 0, 0
    6500, 9.29319e-07, 2.06833e-05, 0, 0
    6600, 8.7751e-07, 1.95316e-05, 0, 0
    6700, 8.31055e-07, 1.80848e-05, 0, 0
    6800, 7.87938e-07, 1.66926e-05, 0, 0
    6900, 7.47348e-07, 1.54619e-05, 0, 0
    7000, 7.09591e-07, 1.42449e-05, 0, 0
    7100, 6.75039e-07, 1.31859e-05, 0, 0
    7200, 6.40553e-07, 1.20237e-05, 0, 0
    7300, 6.08606e-07, 1.1119e-05, 0, 0
    7400, 5.77129e-07, 1.06836e-05, 0, 0
    7500, 5.48937e-07, 9.97538e-06, 0, 0
    7600, 5.21136e-07, 8.20928e-06, 0, 0
    7700, 4.94328e-07, 7.80823e-06, 0, 0
    7800, 4.68409e-07, 7.4593e-06, 0, 0
    7900, 4.45566e-07, 8.5199e-06, 0, 0
    8000, 4.23454e-07, 7.11936e-06, 0, 0
    8100, 4.01164e-07, 6.83287e-06, 0, 0
    8200, 3.80145e-07, 6.52153e-06, 0, 0
    8300, 3.60124e-07, 6.22201e-06, 0, 0
    8400, 3.4106e-07, 5.93451e-06, 0, 0
    8500, 3.22963e-07, 5.65264e-06, 0, 0
    8600, 3.0584e-07, 5.41794e-06, 0, 0
    8700, 2.8858e-07, 5.28314e-06, 0, 0
    8800, 2.73098e-07, 5.16309e-06, 0, 0
    8900, 2.57702e-07, 4.74887e-06, 0, 0
    9000, 2.43175e-07, 4.36691e-06, 0, 0
    9100, 2.31392e-07, 4.7481e-06, 0, 0
    9200, 2.1696e-07, 4.06236e-06, 0, 0
    9300, 2.05786e-07, 3.91535e-06, 0, 0
    9400, 1.93826e-07, 3.74104e-06, 0, 0
    9500, 1.83305e-07, 3.91508e-06, 0, 0
    9600, 1.73143e-07, 3.38171e-06, 0, 0
    9700, 1.63369e-07, 3.28543e-06, 0, 0
    9800, 1.54384e-07, 3.11637e-06, 0, 0
    9900, 1.45641e-07, 2.97516e-06, 0, 0
    10000, 1.37505e-07, 2.83017e-06, 0, 0
    10100, 1.29822e-07, 2.68944e-06, 0, 0
    10200, 1.2255e-07, 2.55373e-06, 0, 0
    10300, 1.15667e-07, 2.42353e-06, 0, 0
    10400, 1.09152e-07, 2.29906e-06, 0, 0
    10500, 1.02983e-07, 2.18033e-06, 0, 0
    10600, 9.71418e-08, 2.06727e-06, 0, 0
    10700, 9.1615e-08, 1.95974e-06, 0, 0
    10800, 8.63873e-08, 1.85754e-06, 0, 0
    10900, 8.14432e-08, 1.76046e-06, 0, 0
    11000, 7.6767e-08, 1.66829e-06, 0, 0
    11100, 7.23451e-08, 1.58079e-06, 0, 0
    11200, 6.81677e-08, 1.49774e-06, 0, 0
    11300, 6.42212e-08, 1.41892e-06, 0, 0
    11400, 6.04944e-08, 1.34411e-06, 0, 0
    11500, 5.69733e-08, 1.27313e-06, 0, 0
    11600, 5.36348e-08, 1.20808e-06, 0, 0
    11700, 5.05401e-08, 1.14248e-06, 0, 0
    11800, 4.75967e-08, 1.08076e-06, 0, 0
    11900, 4.48064e-08, 1.0227e-06, 0, 0
    12000, 4.21616e-08, 9.67977e-07, 0, 0
    12100, 3.96605e-08, 9.16277e-07, 0, 0
    12200, 3.71889e-08, 8.67548e-07, 0, 0
    12300, 3.50128e-08, 8.22109e-07, 0, 0
    12400, 3.30252e-08, 7.78923e-07, 0, 0
    12500, 3.09952e-08, 7.38177e-07, 0, 0
    12600, 2.91075e-08, 6.99396e-07, 0, 0
    12700, 2.73624e-08, 6.61113e-07, 0, 0
    12800, 2.56972e-08, 6.26528e-07, 0, 0
    12900, 2.40843e-08, 5.93116e-07, 0, 0
    13000, 2.25801e-08, 5.61028e-07, 0, 0
    13100, 2.11687e-08, 5.30277e-07, 0, 0
    13200, 1.98781e-08, 5.00656e-07, 0, 0
    13300, 1.86084e-08, 4.73768e-07, 0, 0
    13400, 1.74395e-08, 4.4702e-07, 0, 0
    13500, 1.63406e-08, 4.21668e-07, 0, 0
    13600, 1.52346e-08, 4.22002e-07, 0, 0
    13700, 1.42599e-08, 4.03334e-07, 0, 0
    13800, 1.3428e-08, 3.76286e-07, 0, 0
    13900, 1.25094e-08, 3.49833e-07, 0, 0
    14000, 1.16405e-08, 3.29905e-07, 0, 0
    14100, 1.08788e-08, 2.98633e-07, 0, 0
    14200, 1.02251e-08, 2.85942e-07, 0, 0
    The solver residual has converged
    14216, 9.98726e-09, 2.68167e-07, 0, 0

Max sigmaEq (von Mises stress) = 413144
ExecutionTime = 87.88 s  ClockTime = 88 s

Jacobian determinant max. 1.01009 min. 0.991796

Time = 7

Evolving solid solver
Solving the total Lagrangian form of the momentum equation for D
    Corr, res, relRes, matRes, iters
    100, 0.000108558, 0.00250925, 0, 0
    200, 7.06419e-05, 0.00089874, 0, 0
    300, 5.93241e-05, 0.0011466, 0, 0
    400, 5.08617e-05, 0.00134801, 0, 0
    500, 4.44483e-05, 0.00150733, 0, 0
    600, 3.92986e-05, 0.00165367, 0, 0
    700, 3.47686e-05, 0.00177398, 0, 0
    800, 3.09524e-05, 0.00182359, 0, 0
    900, 2.88607e-05, 0.00182574, 0, 0
    1000, 2.93663e-05, 0.00182856, 0, 0
    1100, 3.03513e-05, 0.00183198, 0, 0
    1200, 3.16416e-05, 0.00183168, 0, 0
    1300, 3.20543e-05, 0.00116275, 0, 0
    1400, 2.92517e-05, 0.00111057, 0, 0
    1500, 2.59107e-05, 0.00103406, 0, 0
    1600, 2.38115e-05, 0.000971361, 0, 0
    1700, 2.18306e-05, 0.000901443, 0, 0
    1800, 1.98876e-05, 0.000841099, 0, 0
    1900, 1.81109e-05, 0.000779915, 0, 0
    2000, 1.64345e-05, 0.000720961, 0, 0
    2100, 1.49424e-05, 0.000659921, 0, 0
    2200, 1.36267e-05, 0.000595534, 0, 0
    2300, 1.2459e-05, 0.000534368, 0, 0
    2400, 1.14283e-05, 0.000483802, 0, 0
    2500, 1.05173e-05, 0.000434584, 0, 0
    2600, 9.71411e-06, 0.000390958, 0, 0
    2700, 8.98902e-06, 0.000352568, 0, 0
    2800, 8.31862e-06, 0.00031702, 0, 0
    2900, 7.7281e-06, 0.000287704, 0, 0
    3000, 7.16802e-06, 0.000258145, 0, 0
    3100, 6.65348e-06, 0.000233488, 0, 0
    3200, 6.17616e-06, 0.00021102, 0, 0
    3300, 5.73822e-06, 0.000190478, 0, 0
    3400, 5.33318e-06, 0.000171705, 0, 0
    3500, 4.95919e-06, 0.000154688, 0, 0
    3600, 4.61046e-06, 0.000139283, 0, 0
    3700, 4.28443e-06, 0.000125361, 0, 0
    3800, 3.98215e-06, 0.000112798, 0, 0
    3900, 3.70049e-06, 0.000101478, 0, 0
    4000, 3.44008e-06, 9.12936e-05, 0, 0
    4100, 3.20032e-06, 8.21414e-05, 0, 0
    4200, 3.03118e-06, 9.9854e-05, 0, 0
    4300, 2.8189e-06, 9.02028e-05, 0, 0
    4400, 2.62822e-06, 8.14977e-05, 0, 0
    4500, 2.44905e-06, 7.9074e-05, 0, 0
    4600, 2.27165e-06, 7.30694e-05, 0, 0
    4700, 2.11942e-06, 6.72282e-05, 0, 0
    4800, 1.98081e-06, 5.9787e-05, 0, 0
    4900, 1.84778e-06, 5.56215e-05, 0, 0
    5000, 1.72353e-06, 5.15238e-05, 0, 0
    5100, 1.60922e-06, 4.76435e-05, 0, 0
    5200, 1.50345e-06, 4.40109e-05, 0, 0
    5300, 1.40889e-06, 4.02229e-05, 0, 0
    5400, 1.31742e-06, 3.69311e-05, 0, 0
    5500, 1.23412e-06, 3.38581e-05, 0, 0
    5600, 1.15726e-06, 3.06449e-05, 0, 0
    5700, 1.08453e-06, 2.79465e-05, 0, 0
    5800, 1.01976e-06, 2.59145e-05, 0, 0
    5900, 9.58763e-07, 2.37608e-05, 0, 0
    6000, 9.00816e-07, 2.21256e-05, 0, 0
    6100, 8.50149e-07, 2.06244e-05, 0, 0
    6200, 8.01941e-07, 1.9137e-05, 0, 0
    6300, 7.58322e-07, 1.78104e-05, 0, 0
    6400, 7.17444e-07, 1.64897e-05, 0, 0
    6500, 6.78313e-07, 1.48961e-05, 0, 0
    6600, 6.41898e-07, 1.37223e-05, 0, 0
    6700, 6.07679e-07, 1.29021e-05, 0, 0
    6800, 5.76678e-07, 1.17974e-05, 0, 0
    6900, 5.47701e-07, 1.08213e-05, 0, 0
    7000, 5.20152e-07, 1.00575e-05, 0, 0
    7100, 4.89873e-07, 7.489e-06, 0, 0
    7200, 4.6959e-07, 7.0119e-06, 0, 0
    7300, 4.45633e-07, 6.68563e-06, 0, 0
    7400, 4.21176e-07, 6.38918e-06, 0, 0
    7500, 3.99336e-07, 6.05865e-06, 0, 0
    7600, 3.73886e-07, 6.05438e-06, 0, 0
    7700, 3.57942e-07, 6.06585e-06, 0, 0
    7800, 3.42934e-07, 7.50328e-06, 0, 0
    7900, 3.23581e-07, 7.64147e-06, 0, 0
    8000, 3.02934e-07, 6.81542e-06, 0, 0
    8100, 2.86468e-07, 5.13643e-06, 0, 0
    8200, 2.71915e-07, 4.74046e-06, 0, 0
    8300, 2.56574e-07, 4.63624e-06, 0, 0
    8400, 2.4636e-07, 4.75965e-06, 0, 0
    8500, 2.30288e-07, 4.74521e-06, 0, 0
    8600, 2.17444e-07, 4.04816e-06, 0, 0
    8700, 2.05176e-07, 4.02405e-06, 0, 0
    8800, 1.94755e-07, 4.44423e-06, 0, 0
    8900, 1.8335e-07, 3.61614e-06, 0, 0
    9000, 1.73318e-07, 3.97747e-06, 0, 0
    9100, 1.63486e-07, 3.38181e-06, 0, 0
    9200, 1.54193e-07, 3.23348e-06, 0, 0
    9300, 1.45733e-07, 3.08085e-06, 0, 0
    9400, 1.37607e-07, 2.93591e-06, 0, 0
    9500, 1.29952e-07, 2.78797e-06, 0, 0
    9600, 1.22708e-07, 2.64633e-06, 0, 0
    9700, 1.15848e-07, 2.51083e-06, 0, 0
    9800, 1.09352e-07, 2.38122e-06, 0, 0
    9900, 1.03206e-07, 2.25753e-06, 0, 0
    10000, 9.73873e-08, 2.13971e-06, 0, 0
    10100, 9.18803e-08, 2.02762e-06, 0, 0
    10200, 8.66697e-08, 1.92107e-06, 0, 0
    10300, 8.17429e-08, 1.81984e-06, 0, 0
    10400, 7.70851e-08, 1.72371e-06, 0, 0
    10500, 7.26827e-08, 1.63246e-06, 0, 0
    10600, 6.85214e-08, 1.54585e-06, 0, 0
    10700, 6.45883e-08, 1.46363e-06, 0, 0
    10800, 6.08709e-08, 1.38565e-06, 0, 0
    10900, 5.73589e-08, 1.3118e-06, 0, 0
    11000, 5.40418e-08, 1.24169e-06, 0, 0
    11100, 5.09085e-08, 1.17514e-06, 0, 0
    11200, 4.79483e-08, 1.11198e-06, 0, 0
    11300, 4.51518e-08, 1.05205e-06, 0, 0
    11400, 4.25104e-08, 9.95174e-07, 0, 0
    11500, 4.00185e-08, 9.41216e-07, 0, 0
    11600, 3.76654e-08, 8.90038e-07, 0, 0
    11700, 3.54447e-08, 8.41493e-07, 0, 0
    11800, 3.33488e-08, 7.95456e-07, 0, 0
    11900, 3.13706e-08, 7.51803e-07, 0, 0
    12000, 2.95038e-08, 7.10418e-07, 0, 0
    12100, 2.77441e-08, 6.71188e-07, 0, 0
    12200, 2.6097e-08, 6.34694e-07, 0, 0
    12300, 2.45644e-08, 5.98894e-07, 0, 0
    12400, 2.30963e-08, 5.65025e-07, 0, 0
    12500, 2.17024e-08, 5.33184e-07, 0, 0
    12600, 2.03216e-08, 5.03593e-07, 0, 0
    12700, 1.91177e-08, 4.75782e-07, 0, 0
    12800, 1.79579e-08, 4.49419e-07, 0, 0
    12900, 1.68585e-08, 4.24081e-07, 0, 0
    13000, 1.582e-08, 3.98927e-07, 0, 0
    13100, 1.48825e-08, 3.76231e-07, 0, 0
    13200, 1.39529e-08, 3.56174e-07, 0, 0
    13300, 1.30795e-08, 3.3571e-07, 0, 0
    13400, 1.22438e-08, 3.16769e-07, 0, 0
    13500, 1.1479e-08, 2.98434e-07, 0, 0
    13600, 1.07524e-08, 2.80947e-07, 0, 0
    13700, 1.00749e-08, 2.64199e-07, 0, 0
    The solver residual has converged
    13712, 9.99622e-09, 2.62285e-07, 0, 0

Max sigmaEq (von Mises stress) = 481851
ExecutionTime = 99.89 s  ClockTime = 100 s

Jacobian determinant max. 1.00637 min. 0.99102

Time = 8

Evolving solid solver
Solving the total Lagrangian form of the momentum equation for D
    Corr, res, relRes, matRes, iters
    100, 9.82783e-05, 0.00242329, 0, 0
    200, 6.43522e-05, 0.00100653, 0, 0
    300, 5.42209e-05, 0.0012841, 0, 0
    400, 4.70964e-05, 0.00147928, 0, 0
    500, 4.13435e-05, 0.00166697, 0, 0
    600, 3.68201e-05, 0.00184492, 0, 0
    700, 3.24897e-05, 0.00194683, 0, 0
    800, 2.9188e-05, 0.00198582, 0, 0
    900, 2.97288e-05, 0.00202409, 0, 0
    1000, 3.10647e-05, 0.00207017, 0, 0
    1100, 3.23399e-05, 0.00212649, 0, 0
    1200, 3.08002e-05, 0.00128704, 0, 0
    1300, 2.80155e-05, 0.00125218, 0, 0
    1400, 2.44363e-05, 0.00108963, 0, 0
    1500, 2.23721e-05, 0.00101161, 0, 0
    1600, 2.03584e-05, 0.000949297, 0, 0
    1700, 1.84418e-05, 0.000883195, 0, 0
    1800, 1.66392e-05, 0.000809782, 0, 0
    1900, 1.49961e-05, 0.000740198, 0, 0
    2000, 1.3533e-05, 0.000672025, 0, 0
    2100, 1.22485e-05, 0.000613308, 0, 0
    2200, 1.11147e-05, 0.000547362, 0, 0
    2300, 1.01282e-05, 0.000487393, 0, 0
    2400, 9.26724e-06, 0.000434882, 0, 0
    2500, 8.50706e-06, 0.000387955, 0, 0
    2600, 7.83139e-06, 0.000346604, 0, 0
    2700, 7.23976e-06, 0.000316172, 0, 0
    2800, 6.68212e-06, 0.000284394, 0, 0
    2900, 6.17933e-06, 0.000255922, 0, 0
    3000, 5.72684e-06, 0.000231528, 0, 0
    3100, 5.31551e-06, 0.00020942, 0, 0
    3200, 4.93553e-06, 0.000189308, 0, 0
    3300, 4.58342e-06, 0.000170831, 0, 0
    3400, 4.25738e-06, 0.000154043, 0, 0
    3500, 3.95696e-06, 0.000138804, 0, 0
    3600, 3.67702e-06, 0.000124998, 0, 0
    3700, 3.41649e-06, 0.000112514, 0, 0
    3800, 3.17481e-06, 0.00010125, 0, 0
    3900, 2.95075e-06, 9.11079e-05, 0, 0
    4000, 2.74342e-06, 8.19914e-05, 0, 0
    4100, 2.55115e-06, 7.38099e-05, 0, 0
    4200, 2.33993e-06, 7.73583e-05, 0, 0
    4300, 2.1835e-06, 7.23284e-05, 0, 0
    4400, 2.04464e-06, 6.68894e-05, 0, 0
    4500, 1.89944e-06, 6.46873e-05, 0, 0
    4600, 1.77496e-06, 6.03491e-05, 0, 0
    4700, 1.66469e-06, 5.55359e-05, 0, 0
    4800, 1.55779e-06, 4.97214e-05, 0, 0
    4900, 1.45914e-06, 4.6475e-05, 0, 0
    5000, 1.36671e-06, 4.33006e-05, 0, 0
    5100, 1.28116e-06, 4.02136e-05, 0, 0
    5200, 1.20143e-06, 3.73437e-05, 0, 0
    5300, 1.12718e-06, 3.46168e-05, 0, 0
    5400, 1.06073e-06, 3.20274e-05, 0, 0
    5500, 9.98647e-07, 2.98902e-05, 0, 0
    5600, 9.33888e-07, 2.78907e-05, 0, 0
    5700, 8.79045e-07, 2.59625e-05, 0, 0
    5800, 8.25901e-07, 2.38404e-05, 0, 0
    5900, 7.77439e-07, 2.25028e-05, 0, 0
    6000, 7.29747e-07, 2.10734e-05, 0, 0
    6100, 6.90135e-07, 1.9714e-05, 0, 0
    6200, 6.52849e-07, 1.86323e-05, 0, 0
    6300, 6.17208e-07, 1.73593e-05, 0, 0
    6400, 5.84052e-07, 1.61363e-05, 0, 0
    6500, 5.52967e-07, 1.49448e-05, 0, 0
    6600, 5.2257e-07, 1.39703e-05, 0, 0
    6700, 4.95245e-07, 1.30701e-05, 0, 0
    6800, 4.69033e-07, 1.14217e-05, 0, 0
    6900, 4.44732e-07, 1.07311e-05, 0, 0
    7000, 4.22254e-07, 9.96489e-06, 0, 0
    7100, 4.00615e-07, 9.29232e-06, 0, 0
    7200, 3.79589e-07, 8.80088e-06, 0, 0
    7300, 3.60351e-07, 8.29744e-06, 0, 0
    7400, 3.39867e-07, 7.45737e-06, 0, 0
    7500, 3.22922e-07, 7.08373e-06, 0, 0
    7600, 3.0607e-07, 7.11935e-06, 0, 0
    7700, 2.89622e-07, 6.58227e-06, 0, 0
    7800, 2.7462e-07, 6.34903e-06, 0, 0
    7900, 2.60143e-07, 6.06066e-06, 0, 0
    8000, 2.46738e-07, 5.74835e-06, 0, 0
    8100, 2.33853e-07, 5.46066e-06, 0, 0
    8200, 2.21295e-07, 5.19923e-06, 0, 0
    8300, 2.09422e-07, 4.94376e-06, 0, 0
    8400, 1.98153e-07, 4.70102e-06, 0, 0
    8500, 1.87478e-07, 4.4678e-06, 0, 0
    8600, 1.77331e-07, 4.27484e-06, 0, 0
    8700, 1.67406e-07, 4.24175e-06, 0, 0
    8800, 1.59151e-07, 4.26473e-06, 0, 0
    8900, 1.4929e-07, 3.0646e-06, 0, 0
    9000, 1.41607e-07, 2.99908e-06, 0, 0
    9100, 1.33536e-07, 3.53452e-06, 0, 0
    9200, 1.2583e-07, 2.64763e-06, 0, 0
    9300, 1.20149e-07, 3.01034e-06, 0, 0
    9400, 1.12145e-07, 2.52325e-06, 0, 0
    9500, 1.06622e-07, 2.38821e-06, 0, 0
    9600, 9.99098e-08, 2.60841e-06, 0, 0
    9700, 9.44206e-08, 2.15157e-06, 0, 0
    9800, 8.92743e-08, 2.36459e-06, 0, 0
    9900, 8.40351e-08, 1.93471e-06, 0, 0
    10000, 7.97948e-08, 1.90101e-06, 0, 0
    10100, 7.52718e-08, 1.7789e-06, 0, 0
    10200, 7.07886e-08, 1.70275e-06, 0, 0
    10300, 6.74666e-08, 1.7822e-06, 0, 0
    10400, 6.30001e-08, 1.51713e-06, 0, 0
    10500, 5.98552e-08, 1.46227e-06, 0, 0
    10600, 5.59551e-08, 1.38866e-06, 0, 0
    10700, 5.28969e-08, 1.41032e-06, 0, 0
    10800, 4.97498e-08, 1.25507e-06, 0, 0
    10900, 4.71192e-08, 1.18569e-06, 0, 0
    11000, 4.42101e-08, 1.13176e-06, 0, 0
    11100, 4.16993e-08, 1.0752e-06, 0, 0
    11200, 3.92918e-08, 1.0185e-06, 0, 0
    11300, 3.7023e-08, 9.63959e-07, 0, 0
    11400, 3.48807e-08, 9.11994e-07, 0, 0
    11500, 3.28576e-08, 8.626e-07, 0, 0
    11600, 3.09479e-08, 8.15712e-07, 0, 0
    11700, 2.91457e-08, 7.71245e-07, 0, 0
    11800, 2.74455e-08, 7.29105e-07, 0, 0
    11900, 2.58419e-08, 6.89189e-07, 0, 0
    12000, 2.43285e-08, 6.51391e-07, 0, 0
    12100, 2.29006e-08, 6.15606e-07, 0, 0
    12200, 2.15535e-08, 5.81731e-07, 0, 0
    12300, 2.02832e-08, 5.49666e-07, 0, 0
    12400, 1.90849e-08, 5.19315e-07, 0, 0
    12500, 1.79555e-08, 4.90588e-07, 0, 0
    12600, 1.689e-08, 4.63397e-07, 0, 0
    12700, 1.58855e-08, 4.37663e-07, 0, 0
    12800, 1.49383e-08, 4.13308e-07, 0, 0
    12900, 1.40454e-08, 3.9026e-07, 0, 0
    13000, 1.32043e-08, 3.68451e-07, 0, 0
    13100, 1.24118e-08, 3.47815e-07, 0, 0
    13200, 1.16655e-08, 3.28291e-07, 0, 0
    13300, 1.09624e-08, 3.0982e-07, 0, 0
    13400, 1.03003e-08, 2.92349e-07, 0, 0
    The solver residual has converged
    13450, 9.99762e-09, 2.84306e-07, 0, 0

Max sigmaEq (von Mises stress) = 554900
ExecutionTime = 112.02 s  ClockTime = 112 s

Jacobian determinant max. 1.01248 min. 0.991872

Time = 9

Evolving solid solver
Solving the total Lagrangian form of the momentum equation for D
    Corr, res, relRes, matRes, iters
    100, 8.90452e-05, 0.00250461, 0, 0
    200, 5.94754e-05, 0.00116247, 0, 0
    300, 5.04342e-05, 0.00146811, 0, 0
    400, 4.4039e-05, 0.00164508, 0, 0
    500, 3.91408e-05, 0.00185113, 0, 0
    600, 3.46842e-05, 0.00200524, 0, 0
    700, 3.07237e-05, 0.0020809, 0, 0
    800, 3.02103e-05, 0.0021543, 0, 0
    900, 3.14988e-05, 0.0022404, 0, 0
    1000, 3.27232e-05, 0.00235698, 0, 0
    1100, 3.23348e-05, 0.00143228, 0, 0
--> FOAM Warning : 
    From function Foam::SutherlandHodgman::lineSegmentIntersection()
    in file algorithms/polygon/clipping/SutherlandHodgman.C at line 122
    ub does not match with ua: delta: 1.68736e-07 : epsilon: 1.02831e-10
    1200, 2.8588e-05, 0.00135599, 0, 0
    1300, 2.38605e-05, 0.00119849, 0, 0
    1400, 2.14007e-05, 0.00110387, 0, 0
    1500, 1.93955e-05, 0.00100751, 0, 0
    1600, 1.74477e-05, 0.000926829, 0, 0
    1700, 1.56219e-05, 0.000845111, 0, 0
    1800, 1.3983e-05, 0.000764964, 0, 0
    1900, 1.2502e-05, 0.000690918, 0, 0
    2000, 1.12416e-05, 0.000626452, 0, 0
    2100, 1.02918e-05, 0.000650352, 0, 0
    2200, 9.33749e-06, 0.000581733, 0, 0
    2300, 8.48561e-06, 0.000521547, 0, 0
    2400, 7.7354e-06, 0.000470091, 0, 0
    2500, 7.07757e-06, 0.000424713, 0, 0
    2600, 6.48842e-06, 0.000384747, 0, 0
    2700, 5.95232e-06, 0.000349091, 0, 0
    2800, 5.49988e-06, 0.000317078, 0, 0
    2900, 5.08268e-06, 0.000286916, 0, 0
    3000, 4.6929e-06, 0.000258981, 0, 0
    3100, 4.33169e-06, 0.000233194, 0, 0
    3200, 3.99969e-06, 0.000209696, 0, 0
    3300, 3.69383e-06, 0.000188479, 0, 0
    3400, 3.40649e-06, 0.000170811, 0, 0
    3500, 3.14507e-06, 0.000153332, 0, 0
    3600, 2.90651e-06, 0.000137579, 0, 0
    3700, 2.68171e-06, 0.000123409, 0, 0
    3800, 2.4807e-06, 0.000110708, 0, 0
    3900, 2.29733e-06, 9.93255e-05, 0, 0
    4000, 2.12839e-06, 8.91354e-05, 0, 0
    4100, 1.97175e-06, 7.9881e-05, 0, 0
    4200, 1.83163e-06, 7.18847e-05, 0, 0
    4300, 1.69622e-06, 6.68631e-05, 0, 0
    4400, 1.57414e-06, 6.01233e-05, 0, 0
    4500, 1.46216e-06, 5.45486e-05, 0, 0
    4600, 1.35825e-06, 4.92408e-05, 0, 0
    4700, 1.26294e-06, 4.31283e-05, 0, 0
    4800, 1.17485e-06, 3.98059e-05, 0, 0
    4900, 1.09434e-06, 3.67309e-05, 0, 0
    5000, 1.02263e-06, 3.34796e-05, 0, 0
    5100, 9.54427e-07, 3.08287e-05, 0, 0
    5200, 8.9208e-07, 2.79822e-05, 0, 0
    5300, 8.34438e-07, 2.57217e-05, 0, 0
    5400, 7.82586e-07, 2.3647e-05, 0, 0
    5500, 7.34528e-07, 2.17603e-05, 0, 0
    5600, 6.88175e-07, 1.9805e-05, 0, 0
    5700, 6.45598e-07, 1.84188e-05, 0, 0
    5800, 6.05934e-07, 1.69423e-05, 0, 0
    5900, 5.71694e-07, 1.59796e-05, 0, 0
    6000, 5.40832e-07, 1.48232e-05, 0, 0
    6100, 5.13301e-07, 1.37993e-05, 0, 0
    6200, 4.83306e-07, 1.2722e-05, 0, 0
    6300, 4.56487e-07, 1.18237e-05, 0, 0
    6400, 4.32416e-07, 1.09532e-05, 0, 0
    6500, 4.0975e-07, 1.00899e-05, 0, 0
    6600, 3.88816e-07, 9.30076e-06, 0, 0
    6700, 3.65487e-07, 8.55875e-06, 0, 0
    6800, 3.46277e-07, 7.93096e-06, 0, 0
    6900, 3.28536e-07, 7.46493e-06, 0, 0
    7000, 3.13044e-07, 8.44002e-06, 0, 0
    7100, 2.96629e-07, 5.32823e-06, 0, 0
    7200, 2.8287e-07, 5.24938e-06, 0, 0
    7300, 2.65589e-07, 6.05039e-06, 0, 0
    7400, 2.47859e-07, 7.18628e-06, 0, 0
    7500, 2.38697e-07, 7.22965e-06, 0, 0
    7600, 2.23357e-07, 6.00605e-06, 0, 0
    7700, 2.12131e-07, 4.4161e-06, 0, 0
    7800, 2.02049e-07, 3.90815e-06, 0, 0
    7900, 1.93132e-07, 3.75071e-06, 0, 0
    8000, 1.83272e-07, 3.57592e-06, 0, 0
    8100, 1.73498e-07, 3.41367e-06, 0, 0
    8200, 1.64143e-07, 3.25437e-06, 0, 0
    8300, 1.53995e-07, 3.0938e-06, 0, 0
    8400, 1.45417e-07, 2.95561e-06, 0, 0
    8500, 1.38357e-07, 2.74962e-06, 0, 0
    8600, 1.30756e-07, 2.6599e-06, 0, 0
    8700, 1.23685e-07, 2.52537e-06, 0, 0
    8800, 1.16928e-07, 2.39007e-06, 0, 0
    8900, 1.10329e-07, 2.29954e-06, 0, 0
    9000, 1.04591e-07, 2.2076e-06, 0, 0
    9100, 9.94601e-08, 2.15415e-06, 0, 0
    9200, 9.43313e-08, 2.45024e-06, 0, 0
    9300, 8.92492e-08, 2.4599e-06, 0, 0
    9400, 8.3603e-08, 1.89279e-06, 0, 0
    9500, 7.87048e-08, 1.70988e-06, 0, 0
    9600, 7.4491e-08, 1.629e-06, 0, 0
    9700, 7.0532e-08, 1.5803e-06, 0, 0
    9800, 6.65077e-08, 1.50087e-06, 0, 0
    9900, 6.26374e-08, 1.39815e-06, 0, 0
    10000, 5.89856e-08, 1.31204e-06, 0, 0
    10100, 5.60379e-08, 1.25819e-06, 0, 0
    10200, 5.2637e-08, 1.21574e-06, 0, 0
    10300, 4.96554e-08, 1.1222e-06, 0, 0
    10400, 4.69137e-08, 1.07276e-06, 0, 0
    10500, 4.42207e-08, 1.03489e-06, 0, 0
    10600, 4.16495e-08, 9.5765e-07, 0, 0
    10700, 3.93222e-08, 9.12492e-07, 0, 0
    10800, 3.70526e-08, 8.68449e-07, 0, 0
    10900, 3.49059e-08, 8.20395e-07, 0, 0
    11000, 3.28991e-08, 7.77523e-07, 0, 0
    11100, 3.10045e-08, 7.36154e-07, 0, 0
    11200, 2.92153e-08, 6.96687e-07, 0, 0
    11300, 2.75274e-08, 6.59186e-07, 0, 0
    11400, 2.59358e-08, 6.235e-07, 0, 0
    11500, 2.44327e-08, 5.89677e-07, 0, 0
    11600, 2.30151e-08, 5.57565e-07, 0, 0
    11700, 2.16781e-08, 5.27118e-07, 0, 0
    11800, 2.04173e-08, 4.98263e-07, 0, 0
    11900, 1.92283e-08, 4.70929e-07, 0, 0
    12000, 1.81068e-08, 4.45044e-07, 0, 0
    12100, 1.70491e-08, 4.2054e-07, 0, 0
    12200, 1.60518e-08, 3.97346e-07, 0, 0
    12300, 1.51115e-08, 3.75398e-07, 0, 0
    12400, 1.42252e-08, 3.54631e-07, 0, 0
    12500, 1.33898e-08, 3.34984e-07, 0, 0
    12600, 1.26022e-08, 3.16399e-07, 0, 0
    12700, 1.186e-08, 2.98821e-07, 0, 0
    12800, 1.11605e-08, 2.82195e-07, 0, 0
    12900, 1.05013e-08, 2.66472e-07, 0, 0
    The solver residual has converged
    12982, 9.99482e-09, 2.55098e-07, 0, 0

Max sigmaEq (von Mises stress) = 636667
ExecutionTime = 123.45 s  ClockTime = 124 s

Jacobian determinant max. 1.00996 min. 0.992138

Time = 10

Evolving solid solver
Solving the total Lagrangian form of the momentum equation for D
    Corr, res, relRes, matRes, iters
    100, 8.40631e-05, 0.00256207, 0, 0
    200, 5.54254e-05, 0.00132762, 0, 0
    300, 4.65794e-05, 0.00166714, 0, 0
    400, 4.11589e-05, 0.00184768, 0, 0
    500, 3.66918e-05, 0.00202781, 0, 0
    600, 3.24705e-05, 0.00214192, 0, 0
    700, 3.03082e-05, 0.0022573, 0, 0
    800, 3.15451e-05, 0.00238283, 0, 0
    900, 3.28996e-05, 0.00254885, 0, 0
    1000, 3.38866e-05, 0.00164478, 0, 0
    1100, 2.75437e-05, 0.00148731, 0, 0
    1200, 2.30809e-05, 0.00129104, 0, 0
    1300, 2.06168e-05, 0.00116347, 0, 0
    1400, 1.8487e-05, 0.00106802, 0, 0
    1500, 1.65428e-05, 0.000983329, 0, 0
    1600, 1.47412e-05, 0.00089563, 0, 0
    1700, 1.31174e-05, 0.000807965, 0, 0
    1800, 1.16675e-05, 0.000727279, 0, 0
    1900, 1.02655e-05, 0.000574892, 0, 0
    2000, 9.22888e-06, 0.000516755, 0, 0
    2100, 8.29949e-06, 0.000461797, 0, 0
    2200, 7.49627e-06, 0.000402427, 0, 0
    2300, 6.79591e-06, 0.000364832, 0, 0
    2400, 6.18861e-06, 0.000334509, 0, 0
    2500, 5.64852e-06, 0.00030061, 0, 0
    2600, 5.17097e-06, 0.000270164, 0, 0
    2700, 4.73399e-06, 0.00024283, 0, 0
    2800, 4.33803e-06, 0.000217802, 0, 0
    2900, 3.9769e-06, 0.000194574, 0, 0
    3000, 3.6477e-06, 0.000173516, 0, 0
    3100, 3.34987e-06, 0.000154468, 0, 0
    3200, 3.08006e-06, 0.000137153, 0, 0
    3300, 2.83309e-06, 0.000121694, 0, 0
    3400, 2.60585e-06, 0.000107841, 0, 0
    3500, 2.39287e-06, 9.54622e-05, 0, 0
    3600, 2.19611e-06, 8.48941e-05, 0, 0
    3700, 2.02305e-06, 7.52576e-05, 0, 0
    3800, 1.86578e-06, 6.78136e-05, 0, 0
    3900, 1.7225e-06, 6.11704e-05, 0, 0
    4000, 1.59138e-06, 5.52364e-05, 0, 0
    4100, 1.4739e-06, 5.07717e-05, 0, 0
    4200, 1.36516e-06, 4.57781e-05, 0, 0
    4300, 1.2655e-06, 4.11564e-05, 0, 0
    4400, 1.17454e-06, 3.44134e-05, 0, 0
    4500, 1.09321e-06, 4.32364e-05, 0, 0
    4600, 1.01641e-06, 2.85641e-05, 0, 0
    4700, 9.44476e-07, 2.91565e-05, 0, 0
    4800, 8.87928e-07, 3.1261e-05, 0, 0
    4900, 8.22388e-07, 2.0373e-05, 0, 0
    5000, 7.62334e-07, 2.18656e-05, 0, 0
    5100, 7.1829e-07, 2.49543e-05, 0, 0
    5200, 6.7071e-07, 1.50583e-05, 0, 0
    5300, 6.25748e-07, 1.66389e-05, 0, 0
    5400, 5.8751e-07, 2.24705e-05, 0, 0
    5500, 5.5346e-07, 1.49909e-05, 0, 0
    5600, 5.18009e-07, 1.02563e-05, 0, 0
    5700, 4.89393e-07, 1.6284e-05, 0, 0
    5800, 4.5859e-07, 1.29689e-05, 0, 0
    5900, 4.34737e-07, 8.30065e-06, 0, 0
    6000, 4.17355e-07, 7.56322e-06, 0, 0
    6100, 3.84573e-07, 1.18295e-05, 0, 0
    6200, 3.61994e-07, 1.0879e-05, 0, 0
    6300, 3.43579e-07, 6.46616e-06, 0, 0
    6400, 3.30799e-07, 6.15352e-06, 0, 0
    6500, 3.0779e-07, 1.0744e-05, 0, 0
    6600, 2.91695e-07, 5.82221e-06, 0, 0
    6700, 2.79177e-07, 7.3827e-06, 0, 0
    6800, 2.61568e-07, 8.6895e-06, 0, 0
    6900, 2.5043e-07, 4.98152e-06, 0, 0
    7000, 2.3567e-07, 7.32719e-06, 0, 0
    7100, 2.23171e-07, 4.80166e-06, 0, 0
    7200, 2.1411e-07, 4.37719e-06, 0, 0
    7300, 2.0095e-07, 6.05747e-06, 0, 0
    7400, 1.91088e-07, 5.12001e-06, 0, 0
    7500, 1.81089e-07, 3.83949e-06, 0, 0
    7600, 1.71582e-07, 4.61278e-06, 0, 0
    7700, 1.62389e-07, 4.81609e-06, 0, 0
    7800, 1.53736e-07, 3.417e-06, 0, 0
    7900, 1.4571e-07, 3.12316e-06, 0, 0
    8000, 1.38739e-07, 2.9728e-06, 0, 0
    8100, 1.30978e-07, 2.90787e-06, 0, 0
    8200, 1.24114e-07, 2.77756e-06, 0, 0
    8300, 1.17104e-07, 2.72392e-06, 0, 0
    8400, 1.10763e-07, 2.57511e-06, 0, 0
    8500, 1.04748e-07, 2.45176e-06, 0, 0
    8600, 9.90533e-08, 2.32015e-06, 0, 0
    8700, 9.37967e-08, 2.2001e-06, 0, 0
    8800, 8.86937e-08, 2.00265e-06, 0, 0
    8900, 8.3623e-08, 1.87558e-06, 0, 0
    9000, 7.8987e-08, 1.78349e-06, 0, 0
    9100, 7.48077e-08, 1.68783e-06, 0, 0
    9200, 7.07029e-08, 1.60781e-06, 0, 0
    9300, 6.70353e-08, 1.54145e-06, 0, 0
    9400, 6.31631e-08, 1.49605e-06, 0, 0
    9500, 5.98289e-08, 1.66741e-06, 0, 0
    9600, 5.67111e-08, 1.96411e-06, 0, 0
    9700, 5.31936e-08, 1.28991e-06, 0, 0
    9800, 5.01089e-08, 1.18849e-06, 0, 0
    9900, 4.76566e-08, 1.15339e-06, 0, 0
    10000, 4.49237e-08, 1.09828e-06, 0, 0
    10100, 4.23886e-08, 1.04934e-06, 0, 0
    10200, 3.99861e-08, 1.00075e-06, 0, 0
    10300, 3.77152e-08, 9.53849e-07, 0, 0
    10400, 3.55697e-08, 9.08317e-07, 0, 0
    10500, 3.35424e-08, 8.64175e-07, 0, 0
    10600, 3.16263e-08, 8.21463e-07, 0, 0
    10700, 2.98159e-08, 7.80228e-07, 0, 0
    10800, 2.81059e-08, 7.40516e-07, 0, 0
    10900, 2.64908e-08, 7.02365e-07, 0, 0
    11000, 2.49657e-08, 6.65799e-07, 0, 0
    11100, 2.35257e-08, 6.30825e-07, 0, 0
    11200, 2.21667e-08, 5.97429e-07, 0, 0
    11300, 2.0884e-08, 5.65647e-07, 0, 0
    11400, 1.96742e-08, 5.35382e-07, 0, 0
    11500, 1.85338e-08, 5.0657e-07, 0, 0
    11600, 1.74574e-08, 4.79275e-07, 0, 0
    11700, 1.64427e-08, 4.53362e-07, 0, 0
    11800, 1.54861e-08, 4.28797e-07, 0, 0
    11900, 1.45844e-08, 4.05523e-07, 0, 0
    12000, 1.37346e-08, 3.83481e-07, 0, 0
    12100, 1.29337e-08, 3.62611e-07, 0, 0
    12200, 1.21789e-08, 3.42857e-07, 0, 0
    12300, 1.14676e-08, 3.2416e-07, 0, 0
    12400, 1.07974e-08, 3.06467e-07, 0, 0
    12500, 1.01726e-08, 2.86461e-07, 0, 0
    The solver residual has converged
    12529, 9.99843e-09, 2.82638e-07, 0, 0

Max sigmaEq (von Mises stress) = 723198
ExecutionTime = 134.54 s  ClockTime = 135 s

Jacobian determinant max. 1.01093 min. 0.992506

Time = 11

Evolving solid solver
Solving the total Lagrangian form of the momentum equation for D
    Corr, res, relRes, matRes, iters
    100, 8.07678e-05, 0.00259221, 0, 0
    200, 5.28969e-05, 0.00153415, 0, 0
    300, 4.41296e-05, 0.00190702, 0, 0
    400, 3.87933e-05, 0.00207724, 0, 0
    500, 3.47614e-05, 0.00216597, 0, 0
    600, 3.07159e-05, 0.00229387, 0, 0
    700, 3.14511e-05, 0.00245359, 0, 0
    800, 3.29197e-05, 0.00266421, 0, 0
    900, 3.42393e-05, 0.00296963, 0, 0
    1000, 2.64812e-05, 0.00157271, 0, 0
    1100, 2.33828e-05, 0.00140966, 0, 0
    1200, 1.95831e-05, 0.00125926, 0, 0
    1300, 1.74105e-05, 0.00112725, 0, 0
    1400, 1.55348e-05, 0.00101799, 0, 0
    1500, 1.37654e-05, 0.000914485, 0, 0
    1600, 1.21416e-05, 0.000816322, 0, 0
    1700, 1.08992e-05, 0.000822528, 0, 0
    1800, 9.63669e-06, 0.00073017, 0, 0
    1900, 8.594e-06, 0.000650966, 0, 0
    2000, 7.69967e-06, 0.000582772, 0, 0
    2100, 6.9197e-06, 0.000524103, 0, 0
    2200, 6.22644e-06, 0.000473247, 0, 0
    2300, 5.63613e-06, 0.000422848, 0, 0
    2400, 5.11869e-06, 0.000376498, 0, 0
    2500, 4.65859e-06, 0.000336366, 0, 0
    2600, 4.24329e-06, 0.000300809, 0, 0
    2700, 3.86912e-06, 0.000268909, 0, 0
    2800, 3.53395e-06, 0.000240024, 0, 0
    2900, 3.23076e-06, 0.000214132, 0, 0
    3000, 2.95782e-06, 0.000190857, 0, 0
    3100, 2.71361e-06, 0.000170002, 0, 0
    3200, 2.49185e-06, 0.000151221, 0, 0
    3300, 2.28754e-06, 0.000134513, 0, 0
    3400, 2.10109e-06, 0.000119566, 0, 0
    3500, 1.92677e-06, 0.000107031, 0, 0
    3600, 1.77052e-06, 9.46658e-05, 0, 0
    3700, 1.62942e-06, 8.40396e-05, 0, 0
    3800, 1.50152e-06, 7.46831e-05, 0, 0
    3900, 1.38599e-06, 6.64059e-05, 0, 0
    4000, 1.27915e-06, 5.91267e-05, 0, 0
    4100, 1.1813e-06, 5.34185e-05, 0, 0
    4200, 1.09238e-06, 4.76956e-05, 0, 0
    4300, 1.01122e-06, 4.26565e-05, 0, 0
    4400, 9.3534e-07, 3.81846e-05, 0, 0
    4500, 8.6704e-07, 3.41637e-05, 0, 0
    4600, 8.0523e-07, 2.69992e-05, 0, 0
    4700, 7.50447e-07, 3.3603e-05, 0, 0
    4800, 6.96845e-07, 2.03341e-05, 0, 0
    4900, 6.47834e-07, 2.11542e-05, 0, 0
    5000, 6.085e-07, 2.40411e-05, 0, 0
    5100, 5.68919e-07, 1.7639e-05, 0, 0
    5200, 5.3042e-07, 1.6333e-05, 0, 0
    5300, 4.97602e-07, 1.90516e-05, 0, 0
    5400, 4.67198e-07, 1.23545e-05, 0, 0
    5500, 4.3577e-07, 1.11471e-05, 0, 0
    5600, 4.1452e-07, 1.81341e-05, 0, 0
    5700, 3.83881e-07, 1.3373e-05, 0, 0
    5800, 3.64259e-07, 8.93541e-06, 0, 0
    5900, 3.43746e-07, 7.55095e-06, 0, 0
    6000, 3.26282e-07, 1.2918e-05, 0, 0
    6100, 3.04562e-07, 1.14599e-05, 0, 0
    6200, 2.88649e-07, 1.17447e-05, 0, 0
    6300, 2.75725e-07, 5.6124e-06, 0, 0
    6400, 2.61634e-07, 6.45714e-06, 0, 0
    6500, 2.41872e-07, 8.57645e-06, 0, 0
    6600, 2.31339e-07, 8.77985e-06, 0, 0
    6700, 2.20241e-07, 4.63923e-06, 0, 0
    6800, 2.08227e-07, 6.26669e-06, 0, 0
    6900, 1.96218e-07, 5.57767e-06, 0, 0
    7000, 1.88685e-07, 4.24964e-06, 0, 0
    7100, 1.78313e-07, 7.04378e-06, 0, 0
    7200, 1.69127e-07, 3.82653e-06, 0, 0
    7300, 1.58908e-07, 5.2624e-06, 0, 0
    7400, 1.51643e-07, 3.47703e-06, 0, 0
    7500, 1.42631e-07, 4.79622e-06, 0, 0
    7600, 1.36223e-07, 3.2442e-06, 0, 0
    7700, 1.29606e-07, 3.09191e-06, 0, 0
    7800, 1.23319e-07, 4.5204e-06, 0, 0
    7900, 1.15628e-07, 2.76916e-06, 0, 0
    8000, 1.09353e-07, 3.62534e-06, 0, 0
    8100, 1.04696e-07, 2.70411e-06, 0, 0
    8200, 9.87047e-08, 2.41979e-06, 0, 0
    8300, 9.39137e-08, 3.60787e-06, 0, 0
    8400, 8.89592e-08, 2.32219e-06, 0, 0
    8500, 8.36329e-08, 2.10478e-06, 0, 0
    8600, 7.97009e-08, 2.98076e-06, 0, 0
    8700, 7.53828e-08, 1.98924e-06, 0, 0
    8800, 7.09546e-08, 1.83878e-06, 0, 0
    8900, 6.79681e-08, 2.53861e-06, 0, 0
    9000, 6.35199e-08, 1.64597e-06, 0, 0
    9100, 6.02512e-08, 2.06727e-06, 0, 0
    9200, 5.74579e-08, 2.08516e-06, 0, 0
    9300, 5.37497e-08, 1.4131e-06, 0, 0
    9400, 5.08239e-08, 1.39545e-06, 0, 0
    9500, 4.82958e-08, 1.6085e-06, 0, 0
    9600, 4.55674e-08, 1.22178e-06, 0, 0
    9700, 4.28066e-08, 1.14911e-06, 0, 0
    9800, 4.05186e-08, 1.1319e-06, 0, 0
    9900, 3.84669e-08, 1.29819e-06, 0, 0
    10000, 3.62025e-08, 1.01996e-06, 0, 0
    10100, 3.41638e-08, 9.36019e-07, 0, 0
    10200, 3.2182e-08, 8.86506e-07, 0, 0
    10300, 3.04392e-08, 8.63757e-07, 0, 0
    10400, 2.87106e-08, 9.35489e-07, 0, 0
    10500, 2.73209e-08, 9.27403e-07, 0, 0
    10600, 2.58939e-08, 1.0737e-06, 0, 0
    10700, 2.42405e-08, 6.9161e-07, 0, 0
    10800, 2.29177e-08, 6.57045e-07, 0, 0
    10900, 2.15785e-08, 6.17256e-07, 0, 0
    11000, 2.03253e-08, 5.80586e-07, 0, 0
    11100, 1.91749e-08, 5.50287e-07, 0, 0
    11200, 1.80781e-08, 5.21602e-07, 0, 0
    11300, 1.70464e-08, 4.94756e-07, 0, 0
    11400, 1.6075e-08, 4.69391e-07, 0, 0
    11500, 1.51613e-08, 4.45476e-07, 0, 0
    11600, 1.42754e-08, 4.23389e-07, 0, 0
    11700, 1.3498e-08, 4.0213e-07, 0, 0
    11800, 1.27333e-08, 3.82123e-07, 0, 0
    11900, 1.19969e-08, 3.62148e-07, 0, 0
    12000, 1.13002e-08, 3.41979e-07, 0, 0
    12100, 1.07019e-08, 3.24965e-07, 0, 0
    12200, 1.01284e-08, 3.13932e-07, 0, 0
    The solver residual has converged
    12213, 9.99978e-09, 3.08445e-07, 0, 0

Max sigmaEq (von Mises stress) = 817049
ExecutionTime = 145.42 s  ClockTime = 146 s

Jacobian determinant max. 1.01365 min. 0.991086

Time = 12

Evolving solid solver
Solving the total Lagrangian form of the momentum equation for D
    Corr, res, relRes, matRes, iters
    100, 7.72089e-05, 0.00256956, 0, 0
    200, 4.86848e-05, 0.001747, 0, 0
    300, 4.17047e-05, 0.00214518, 0, 0
    400, 3.68766e-05, 0.00224442, 0, 0
    500, 3.27016e-05, 0.00234185, 0, 0
    600, 3.12172e-05, 0.00250241, 0, 0
    700, 3.25811e-05, 0.00273394, 0, 0
    800, 3.41596e-05, 0.0030729, 0, 0
    900, 3.00429e-05, 0.00199272, 0, 0
    1000, 2.56021e-05, 0.00150485, 0, 0
    1100, 1.95415e-05, 0.00137158, 0, 0
    1200, 1.68109e-05, 0.00122074, 0, 0
    1300, 1.48671e-05, 0.00108901, 0, 0
    1400, 1.31036e-05, 0.000965703, 0, 0
    1500, 1.14939e-05, 0.000852918, 0, 0
    1600, 9.99085e-06, 0.000679799, 0, 0
    1700, 8.81727e-06, 0.000603748, 0, 0
    1800, 7.78796e-06, 0.000539922, 0, 0
    1900, 6.91815e-06, 0.000480571, 0, 0
    2000, 6.14463e-06, 0.00042622, 0, 0
    2100, 5.50028e-06, 0.00037723, 0, 0
    2200, 4.93507e-06, 0.000333554, 0, 0
    2300, 4.43922e-06, 0.0002943, 0, 0
    2400, 4.00498e-06, 0.000256101, 0, 0
    2500, 3.61941e-06, 0.000222077, 0, 0
    2600, 3.27782e-06, 0.000193427, 0, 0
    2700, 2.97163e-06, 0.000170679, 0, 0
    2800, 2.69956e-06, 0.000151389, 0, 0
    2900, 2.45478e-06, 0.000134286, 0, 0
    3000, 2.23564e-06, 0.000118868, 0, 0
    3100, 2.0372e-06, 0.000105038, 0, 0
    3200, 1.85804e-06, 9.28188e-05, 0, 0
    3300, 1.69059e-06, 8.98547e-05, 0, 0
    3400, 1.54166e-06, 8.01951e-05, 0, 0
    3500, 1.42894e-06, 7.12652e-05, 0, 0
    3600, 1.32998e-06, 7.20202e-05, 0, 0
    3700, 1.19951e-06, 5.46894e-05, 0, 0
    3800, 1.0954e-06, 4.86501e-05, 0, 0
    3900, 1.02203e-06, 4.5446e-05, 0, 0
    4000, 9.33681e-07, 3.85738e-05, 0, 0
    4100, 8.72039e-07, 3.36738e-05, 0, 0
    4200, 8.07098e-07, 3.50044e-05, 0, 0
    4300, 7.45539e-07, 3.25666e-05, 0, 0
    4400, 6.85767e-07, 2.46675e-05, 0, 0
    4500, 6.42621e-07, 2.64474e-05, 0, 0
    4600, 5.91324e-07, 2.01783e-05, 0, 0
    4700, 5.5522e-07, 2.02698e-05, 0, 0
    4800, 5.1252e-07, 1.57717e-05, 0, 0
    4900, 4.83751e-07, 2.02079e-05, 0, 0
    5000, 4.48567e-07, 1.28411e-05, 0, 0
    5100, 4.19845e-07, 1.26062e-05, 0, 0
    5200, 3.94157e-07, 1.53475e-05, 0, 0
    5300, 3.69592e-07, 1.1293e-05, 0, 0
    5400, 3.46778e-07, 1.24735e-05, 0, 0
    5500, 3.27051e-07, 8.27704e-06, 0, 0
    5600, 3.03419e-07, 1.15442e-05, 0, 0
    5700, 2.90766e-07, 1.28441e-05, 0, 0
    5800, 2.74874e-07, 6.56896e-06, 0, 0
    5900, 2.5798e-07, 1.23735e-05, 0, 0
    6000, 2.42563e-07, 6.45735e-06, 0, 0
    6100, 2.32819e-07, 5.30885e-06, 0, 0
    6200, 2.18068e-07, 1.03224e-05, 0, 0
    6300, 2.04365e-07, 7.5599e-06, 0, 0
    6400, 1.9473e-07, 4.43498e-06, 0, 0
    6500, 1.84846e-07, 5.01447e-06, 0, 0
    6600, 1.72717e-07, 5.41049e-06, 0, 0
    6700, 1.65511e-07, 3.91669e-06, 0, 0
    6800, 1.56286e-07, 6.5996e-06, 0, 0
    6900, 1.48438e-07, 3.6266e-06, 0, 0
    7000, 1.41417e-07, 3.64635e-06, 0, 0
    7100, 1.34591e-07, 3.46076e-06, 0, 0
    7200, 1.27169e-07, 3.25404e-06, 0, 0
    7300, 1.21998e-07, 5.07435e-06, 0, 0
    7400, 1.14118e-07, 2.94634e-06, 0, 0
    7500, 1.08508e-07, 3.75096e-06, 0, 0
    7600, 1.0256e-07, 2.71657e-06, 0, 0
    7700, 9.74147e-08, 3.96206e-06, 0, 0
    7800, 9.30621e-08, 2.48794e-06, 0, 0
    7900, 8.7466e-08, 2.69128e-06, 0, 0
    8000, 8.36324e-08, 2.3571e-06, 0, 0
    8100, 7.82344e-08, 2.15228e-06, 0, 0
    8200, 7.43829e-08, 2.58045e-06, 0, 0
    8300, 7.07168e-08, 1.95935e-06, 0, 0
    8400, 6.64662e-08, 1.91511e-06, 0, 0
    8500, 6.38184e-08, 2.55817e-06, 0, 0
    8600, 5.95963e-08, 1.68478e-06, 0, 0
    8700, 5.64106e-08, 1.96218e-06, 0, 0
    8800, 5.3536e-08, 1.53686e-06, 0, 0
    8900, 5.05047e-08, 1.87309e-06, 0, 0
    9000, 4.81048e-08, 1.40697e-06, 0, 0
    9100, 4.50846e-08, 1.3328e-06, 0, 0
    9200, 4.30815e-08, 1.8058e-06, 0, 0
    9300, 4.02783e-08, 1.19207e-06, 0, 0
    9400, 3.8123e-08, 1.304e-06, 0, 0
    9500, 3.62943e-08, 1.11748e-06, 0, 0
    9600, 3.3886e-08, 1.02639e-06, 0, 0
    9700, 3.20484e-08, 1.16048e-06, 0, 0
    9800, 3.04987e-08, 9.45331e-07, 0, 0
    9900, 2.85318e-08, 8.76648e-07, 0, 0
    10000, 2.69918e-08, 9.89201e-07, 0, 0
    10100, 2.57613e-08, 8.06015e-07, 0, 0
    10200, 2.40181e-08, 7.49163e-07, 0, 0
    10300, 2.26999e-08, 8.43345e-07, 0, 0
    10400, 2.15994e-08, 6.89965e-07, 0, 0
    10500, 2.01889e-08, 6.38291e-07, 0, 0
    10600, 1.90712e-08, 7.14359e-07, 0, 0
    10700, 1.80816e-08, 5.92503e-07, 0, 0
    10800, 1.69797e-08, 5.44201e-07, 0, 0
    10900, 1.60086e-08, 6.05049e-07, 0, 0
    11000, 1.51949e-08, 5.04909e-07, 0, 0
    11100, 1.42558e-08, 4.6338e-07, 0, 0
    11200, 1.34633e-08, 4.41039e-07, 0, 0
    11300, 1.27758e-08, 4.37509e-07, 0, 0
    11400, 1.21125e-08, 5.66045e-07, 0, 0
    11500, 1.13636e-08, 4.01884e-07, 0, 0
    11600, 1.08293e-08, 3.69434e-07, 0, 0
    11700, 1.01747e-08, 3.41609e-07, 0, 0
    The solver residual has converged
    11723, 9.95896e-09, 3.83341e-07, 0, 0

Max sigmaEq (von Mises stress) = 918176
ExecutionTime = 155.83 s  ClockTime = 156 s

Jacobian determinant max. 1.00891 min. 0.992003

Time = 13

Evolving solid solver
Solving the total Lagrangian form of the momentum equation for D
    Corr, res, relRes, matRes, iters
    100, 7.375e-05, 0.00255055, 0, 0
    200, 4.57123e-05, 0.00194898, 0, 0
    300, 3.95998e-05, 0.00230377, 0, 0
    400, 3.49768e-05, 0.00242781, 0, 0
    500, 3.0965e-05, 0.0025642, 0, 0
    600, 3.20483e-05, 0.00277018, 0, 0
    700, 3.36184e-05, 0.00310777, 0, 0
    800, 3.39449e-05, 0.00192736, 0, 0
    900, 2.54788e-05, 0.00173143, 0, 0
    1000, 1.91974e-05, 0.00147518, 0, 0
    1100, 1.63999e-05, 0.00130617, 0, 0
    1200, 1.4277e-05, 0.00115578, 0, 0
    1300, 1.25733e-05, 0.00101924, 0, 0
    1400, 1.09886e-05, 0.000895163, 0, 0
    1500, 9.51195e-06, 0.000714148, 0, 0
    1600, 8.35457e-06, 0.000628719, 0, 0
    1700, 7.33864e-06, 0.000558942, 0, 0
    1800, 6.47067e-06, 0.000494018, 0, 0
    1900, 5.70629e-06, 0.000435349, 0, 0
    2000, 5.1984e-06, 0.000451795, 0, 0
[...]
    7600, 1.78171e-08, 1.08371e-06, 0, 0
    7700, 1.69247e-08, 1.02794e-06, 0, 0
    7800, 1.60772e-08, 9.75052e-07, 0, 0
    7900, 1.52718e-08, 9.24903e-07, 0, 0
    8000, 1.4508e-08, 8.77091e-07, 0, 0
    8100, 1.37828e-08, 8.29199e-07, 0, 0
    8200, 1.30935e-08, 7.87218e-07, 0, 0
    8300, 1.24394e-08, 7.45052e-07, 0, 0
    8400, 1.18252e-08, 7.06706e-07, 0, 0
    8500, 1.12336e-08, 6.68784e-07, 0, 0
    8600, 1.06805e-08, 6.34563e-07, 0, 0
    8700, 1.01407e-08, 6.02567e-07, 0, 0
    The solver residual has converged
    8728, 9.99483e-09, 5.93904e-07, 0, 0

Max sigmaEq (von Mises stress) = 3.11979e+06
ExecutionTime = 264.39 s  ClockTime = 265 s

Jacobian determinant max. 1.01118 min. 0.985687

Time = 26

Evolving solid solver
Solving the total Lagrangian form of the momentum equation for D
    Corr, res, relRes, matRes, iters
    100, 3.16051e-05, 0.00107735, 0, 0
    200, 2.54174e-05, 0.00308275, 0, 0
    300, 2.64254e-05, 0.00483932, 0, 0
    400, 3.56837e-05, 0.00396902, 0, 0
    500, 2.8526e-05, 0.0029394, 0, 0
    600, 2.00979e-05, 0.00238319, 0, 0
    700, 6.99081e-06, 0.000734854, 0, 0
    800, 3.66558e-06, 0.000336089, 0, 0
    900, 2.50863e-06, 0.000274991, 0, 0
    1000, 2.11726e-06, 0.000215927, 0, 0
    1100, 1.80673e-06, 0.000180467, 0, 0
    1200, 1.5538e-06, 0.000152197, 0, 0
    1300, 1.34679e-06, 0.00012604, 0, 0
    1400, 1.16356e-06, 0.000103806, 0, 0
    1500, 1.0048e-06, 8.70227e-05, 0, 0
    1600, 8.67738e-07, 7.293e-05, 0, 0
    1700, 7.49943e-07, 6.1676e-05, 0, 0
    1800, 6.497e-07, 5.23931e-05, 0, 0
    1900, 5.66874e-07, 4.42821e-05, 0, 0
    2000, 4.97536e-07, 3.72075e-05, 0, 0
    2100, 4.39137e-07, 3.11071e-05, 0, 0
    2200, 3.88251e-07, 2.56696e-05, 0, 0
    2300, 3.47081e-07, 2.21418e-05, 0, 0
    2400, 3.13862e-07, 1.82471e-05, 0, 0
    2500, 2.86265e-07, 1.54505e-05, 0, 0
    2600, 2.62616e-07, 1.28989e-05, 0, 0
    2700, 2.42503e-07, 1.03598e-05, 0, 0
    2800, 2.24975e-07, 8.72039e-06, 0, 0
    2900, 2.09071e-07, 7.06579e-06, 0, 0
    3000, 1.98535e-07, 7.41529e-06, 0, 0
    3100, 1.8714e-07, 7.39228e-06, 0, 0
    3200, 1.76812e-07, 7.22359e-06, 0, 0
    3300, 1.67074e-07, 7.22924e-06, 0, 0
    3400, 1.5816e-07, 6.79934e-06, 0, 0
    3500, 1.4972e-07, 6.61101e-06, 0, 0
    3600, 1.41403e-07, 6.48514e-06, 0, 0
    3700, 1.33228e-07, 6.31151e-06, 0, 0
    3800, 1.25404e-07, 6.1618e-06, 0, 0
    3900, 1.17759e-07, 6.18993e-06, 0, 0
    4000, 1.10751e-07, 5.99438e-06, 0, 0
    4100, 1.04561e-07, 5.782e-06, 0, 0
    4200, 9.8674e-08, 5.56565e-06, 0, 0
    4300, 9.32826e-08, 5.33821e-06, 0, 0
    4400, 8.82779e-08, 5.11066e-06, 0, 0
    4500, 8.36119e-08, 4.88619e-06, 0, 0
    4600, 7.92751e-08, 4.66584e-06, 0, 0
    4700, 7.52152e-08, 4.45077e-06, 0, 0
    4800, 7.14e-08, 4.24173e-06, 0, 0
    4900, 6.78039e-08, 4.03938e-06, 0, 0
    5000, 6.43981e-08, 3.84414e-06, 0, 0
    5100, 6.11843e-08, 3.6563e-06, 0, 0
    5200, 5.81429e-08, 3.476e-06, 0, 0
    5300, 5.52494e-08, 3.30328e-06, 0, 0
    5400, 5.25019e-08, 3.13812e-06, 0, 0
    5500, 4.98973e-08, 2.9804e-06, 0, 0
    5600, 4.74286e-08, 2.82998e-06, 0, 0
    5700, 4.50801e-08, 2.68666e-06, 0, 0
    5800, 4.28456e-08, 2.55022e-06, 0, 0
    5900, 4.07232e-08, 2.42044e-06, 0, 0
    6000, 3.87046e-08, 2.29705e-06, 0, 0
    6100, 3.67848e-08, 2.1798e-06, 0, 0
    6200, 3.49586e-08, 2.06844e-06, 0, 0
    6300, 3.32218e-08, 1.9627e-06, 0, 0
    6400, 3.15726e-08, 1.86232e-06, 0, 0
    6500, 3.00043e-08, 1.76705e-06, 0, 0
    6600, 2.85142e-08, 1.67665e-06, 0, 0
    6700, 2.7098e-08, 1.59088e-06, 0, 0
    6800, 2.57514e-08, 1.5095e-06, 0, 0
    6900, 2.44711e-08, 1.43231e-06, 0, 0
    7000, 2.32544e-08, 1.35908e-06, 0, 0
    7100, 2.2098e-08, 1.28961e-06, 0, 0
    7200, 2.09988e-08, 1.22372e-06, 0, 0
    7300, 1.99539e-08, 1.16121e-06, 0, 0
    7400, 1.89609e-08, 1.10192e-06, 0, 0
    7500, 1.8017e-08, 1.04566e-06, 0, 0
    7600, 1.712e-08, 9.92301e-07, 0, 0
    7700, 1.62675e-08, 9.41675e-07, 0, 0
    7800, 1.54585e-08, 8.93645e-07, 0, 0
    7900, 1.46888e-08, 8.46736e-07, 0, 0
    8000, 1.39673e-08, 8.02285e-07, 0, 0
    8100, 1.32783e-08, 7.60881e-07, 0, 0
    8200, 1.26164e-08, 7.20801e-07, 0, 0
    8300, 1.19917e-08, 6.84264e-07, 0, 0
    8400, 1.1397e-08, 6.4908e-07, 0, 0
    8500, 1.08357e-08, 6.15546e-07, 0, 0
    8600, 1.03038e-08, 5.84316e-07, 0, 0
    The solver residual has converged
    8659, 9.99826e-09, 5.67059e-07, 0, 0

Max sigmaEq (von Mises stress) = 3.38621e+06
ExecutionTime = 272.04 s  ClockTime = 272 s

Jacobian determinant max. 1.01369 min. 0.987018

Time = 27

Evolving solid solver
Solving the total Lagrangian form of the momentum equation for D
    Corr, res, relRes, matRes, iters
    100, 2.94558e-05, 0.00107042, 0, 0
    200, 2.45302e-05, 0.00311746, 0, 0
    300, 2.55595e-05, 0.00493703, 0, 0
    400, 3.38525e-05, 0.00376683, 0, 0
    500, 2.58875e-05, 0.00338972, 0, 0
    600, 2.06207e-05, 0.00242551, 0, 0
    700, 6.808e-06, 0.000566774, 0, 0
    800, 3.0997e-06, 0.000272554, 0, 0
    900, 2.20699e-06, 0.000215919, 0, 0
    1000, 1.83044e-06, 0.000185616, 0, 0
    1100, 1.55672e-06, 0.000159865, 0, 0
    1200, 1.34516e-06, 0.00013525, 0, 0
    1300, 1.16945e-06, 0.000112802, 0, 0
    1400, 1.01253e-06, 9.23891e-05, 0, 0
    1500, 8.77673e-07, 7.51089e-05, 0, 0
    1600, 7.63163e-07, 6.04641e-05, 0, 0
    1700, 6.6652e-07, 4.81123e-05, 0, 0
    1800, 5.82614e-07, 3.77596e-05, 0, 0
    1900, 5.13934e-07, 3.19021e-05, 0, 0
    2000, 4.557e-07, 2.64988e-05, 0, 0
    2100, 4.05e-07, 2.28046e-05, 0, 0
    2200, 3.63132e-07, 1.87367e-05, 0, 0
    2300, 3.28135e-07, 1.59623e-05, 0, 0
    2400, 2.99695e-07, 1.30187e-05, 0, 0
    2500, 2.75926e-07, 1.08449e-05, 0, 0
    2600, 2.5455e-07, 8.97258e-06, 0, 0
    2700, 2.35137e-07, 7.53444e-06, 0, 0
    2800, 2.1913e-07, 6.34125e-06, 0, 0
    2900, 2.05512e-07, 5.77408e-06, 0, 0
    3000, 1.94923e-07, 6.18344e-06, 0, 0
    3100, 1.83405e-07, 6.23738e-06, 0, 0
    3200, 1.73082e-07, 6.45163e-06, 0, 0
    3300, 1.63477e-07, 6.05856e-06, 0, 0
    3400, 1.54495e-07, 6.08489e-06, 0, 0
    3500, 1.45741e-07, 5.78769e-06, 0, 0
    3600, 1.37607e-07, 5.63797e-06, 0, 0
    3700, 1.29901e-07, 5.46221e-06, 0, 0
    3800, 1.22669e-07, 5.28855e-06, 0, 0
    3900, 1.15164e-07, 5.21418e-06, 0, 0
    4000, 1.08361e-07, 5.11891e-06, 0, 0
    4100, 1.0226e-07, 4.9288e-06, 0, 0
    4200, 9.67926e-08, 4.73518e-06, 0, 0
    4300, 9.1652e-08, 4.54709e-06, 0, 0
    4400, 8.68126e-08, 4.36422e-06, 0, 0
    4500, 8.24024e-08, 4.18676e-06, 0, 0
    4600, 7.80682e-08, 4.00558e-06, 0, 0
    4700, 7.40962e-08, 3.83865e-06, 0, 0
    4800, 7.03365e-08, 3.66471e-06, 0, 0
    4900, 6.67859e-08, 3.4955e-06, 0, 0
    5000, 6.34293e-08, 3.33202e-06, 0, 0
    5100, 6.02481e-08, 3.17437e-06, 0, 0
    5200, 5.72405e-08, 3.02263e-06, 0, 0
    5300, 5.43924e-08, 2.87688e-06, 0, 0
    5400, 5.16917e-08, 2.73714e-06, 0, 0
    5500, 4.91286e-08, 2.60338e-06, 0, 0
    5600, 4.66948e-08, 2.47552e-06, 0, 0
    5700, 4.43819e-08, 2.35343e-06, 0, 0
    5800, 4.21848e-08, 2.23696e-06, 0, 0
    5900, 4.00968e-08, 2.12595e-06, 0, 0
    6000, 3.81133e-08, 2.02021e-06, 0, 0
    6100, 3.62293e-08, 1.91954e-06, 0, 0
    6200, 3.44399e-08, 1.82376e-06, 0, 0
    6300, 3.27403e-08, 1.73264e-06, 0, 0
    6400, 3.11244e-08, 1.64601e-06, 0, 0
    6500, 2.9588e-08, 1.56365e-06, 0, 0
    6600, 2.8128e-08, 1.48537e-06, 0, 0
    6700, 2.67398e-08, 1.41099e-06, 0, 0
    6800, 2.54198e-08, 1.34032e-06, 0, 0
    6900, 2.41652e-08, 1.27317e-06, 0, 0
    7000, 2.29724e-08, 1.20939e-06, 0, 0
    7100, 2.18383e-08, 1.1488e-06, 0, 0
    7200, 2.076e-08, 1.09124e-06, 0, 0
    7300, 1.97349e-08, 1.03658e-06, 0, 0
    7400, 1.87602e-08, 9.84649e-07, 0, 0
    7500, 1.78337e-08, 9.35328e-07, 0, 0
    7600, 1.69528e-08, 8.88481e-07, 0, 0
    7700, 1.61281e-08, 8.41242e-07, 0, 0
    7800, 1.53287e-08, 7.99756e-07, 0, 0
    7900, 1.45723e-08, 7.57983e-07, 0, 0
    8000, 1.38531e-08, 7.19588e-07, 0, 0
    8100, 1.31662e-08, 6.83259e-07, 0, 0
    8200, 1.25221e-08, 6.49495e-07, 0, 0
    8300, 1.19117e-08, 6.17097e-07, 0, 0
    8400, 1.13229e-08, 5.85558e-07, 0, 0
    8500, 1.07676e-08, 5.54698e-07, 0, 0
    8600, 1.02376e-08, 5.27922e-07, 0, 0
    The solver residual has converged
    8647, 9.99586e-09, 5.15751e-07, 0, 0

Max sigmaEq (von Mises stress) = 3.67287e+06
ExecutionTime = 279.7 s  ClockTime = 280 s

Jacobian determinant max. 1.01013 min. 0.989493

Time = 28

Evolving solid solver
Solving the total Lagrangian form of the momentum equation for D
    Corr, res, relRes, matRes, iters
    100, 2.7418e-05, 0.00110297, 0, 0
    200, 2.3174e-05, 0.00312842, 0, 0
    300, 2.45633e-05, 0.00503844, 0, 0
    400, 3.4803e-05, 0.00361772, 0, 0
    500, 2.83756e-05, 0.00324962, 0, 0
    600, 2.01383e-05, 0.002427, 0, 0
    700, 6.96285e-06, 0.000441768, 0, 0
    800, 2.67245e-06, 0.000244697, 0, 0
    900, 2.06026e-06, 0.000199622, 0, 0
    1000, 1.65423e-06, 0.000168068, 0, 0
    1100, 1.3364e-06, 0.000135198, 0, 0
    1200, 1.14599e-06, 0.000108841, 0, 0
    1300, 9.96426e-07, 8.73594e-05, 0, 0
    1400, 8.65123e-07, 6.94515e-05, 0, 0
    1500, 7.54479e-07, 5.46964e-05, 0, 0
    1600, 6.57081e-07, 4.28899e-05, 0, 0
    1700, 5.76366e-07, 3.52368e-05, 0, 0
    1800, 5.06599e-07, 2.78145e-05, 0, 0
    1900, 4.49849e-07, 2.2234e-05, 0, 0
    2000, 4.01949e-07, 1.89488e-05, 0, 0
    2100, 3.61325e-07, 1.61055e-05, 0, 0
    2200, 3.26899e-07, 1.36031e-05, 0, 0
    2300, 2.97796e-07, 1.17963e-05, 0, 0
    2400, 2.73739e-07, 1.00493e-05, 0, 0
    2500, 2.53537e-07, 8.64999e-06, 0, 0
    2600, 2.36242e-07, 7.33376e-06, 0, 0
    2700, 2.20805e-07, 6.21541e-06, 0, 0
    2800, 2.0711e-07, 5.0566e-06, 0, 0
    2900, 1.95278e-07, 5.31919e-06, 0, 0
    3000, 1.84307e-07, 5.29134e-06, 0, 0
    3100, 1.73332e-07, 5.34244e-06, 0, 0
    3200, 1.64157e-07, 5.27395e-06, 0, 0
    3300, 1.55593e-07, 5.36773e-06, 0, 0
    3400, 1.46735e-07, 5.0904e-06, 0, 0
    3500, 1.38341e-07, 5.00227e-06, 0, 0
    3600, 1.30589e-07, 4.88195e-06, 0, 0
    3700, 1.23364e-07, 4.75496e-06, 0, 0
    3800, 1.16406e-07, 4.75776e-06, 0, 0
    3900, 1.09592e-07, 4.44838e-06, 0, 0
    4000, 1.03373e-07, 4.45558e-06, 0, 0
    4100, 9.77908e-08, 4.32104e-06, 0, 0
    4200, 9.25292e-08, 4.16996e-06, 0, 0
    4300, 8.77036e-08, 4.02943e-06, 0, 0
    4400, 8.32486e-08, 3.87051e-06, 0, 0
    4500, 7.90816e-08, 3.71213e-06, 0, 0
    4600, 7.50104e-08, 3.55499e-06, 0, 0
    4700, 7.125e-08, 3.40167e-06, 0, 0
    4800, 6.7673e-08, 3.25297e-06, 0, 0
    4900, 6.42614e-08, 3.10339e-06, 0, 0
    5000, 6.10438e-08, 2.96028e-06, 0, 0
    5100, 5.79978e-08, 2.82502e-06, 0, 0
    5200, 5.51098e-08, 2.69183e-06, 0, 0
    5300, 5.23674e-08, 2.56341e-06, 0, 0
    5400, 4.97737e-08, 2.44087e-06, 0, 0
    5500, 4.73135e-08, 2.32472e-06, 0, 0
    5600, 4.4971e-08, 2.21114e-06, 0, 0
    5700, 4.27434e-08, 2.10341e-06, 0, 0
    5800, 4.06555e-08, 2.00245e-06, 0, 0
    5900, 3.86497e-08, 1.90359e-06, 0, 0
    6000, 3.6739e-08, 1.81007e-06, 0, 0
    6100, 3.49475e-08, 1.7226e-06, 0, 0
    6200, 3.3226e-08, 1.63706e-06, 0, 0
    6300, 3.15851e-08, 1.55614e-06, 0, 0
    6400, 3.00384e-08, 1.47924e-06, 0, 0
    6500, 2.85641e-08, 1.40636e-06, 0, 0
    6600, 2.71628e-08, 1.33704e-06, 0, 0
    6700, 2.58328e-08, 1.2713e-06, 0, 0
    6800, 2.45663e-08, 1.20859e-06, 0, 0
    6900, 2.33657e-08, 1.14897e-06, 0, 0
    7000, 2.22225e-08, 1.0924e-06, 0, 0
    7100, 2.11336e-08, 1.0382e-06, 0, 0
    7200, 2.0108e-08, 9.85735e-07, 0, 0
    7300, 1.91201e-08, 9.37242e-07, 0, 0
    7400, 1.81822e-08, 8.91128e-07, 0, 0
    7500, 1.72908e-08, 8.47321e-07, 0, 0
    7600, 1.64437e-08, 8.05651e-07, 0, 0
    7700, 1.56191e-08, 7.64258e-07, 0, 0
    7800, 1.48408e-08, 7.26965e-07, 0, 0
    7900, 1.41117e-08, 6.90869e-07, 0, 0
    8000, 1.34206e-08, 6.57264e-07, 0, 0
    8100, 1.27679e-08, 6.23814e-07, 0, 0
    8200, 1.21452e-08, 5.9295e-07, 0, 0
    8300, 1.15372e-08, 5.64393e-07, 0, 0
    8400, 1.0981e-08, 5.36743e-07, 0, 0
    8500, 1.04423e-08, 5.11521e-07, 0, 0
    The solver residual has converged
    8588, 9.99328e-09, 4.89955e-07, 0, 0

Max sigmaEq (von Mises stress) = 3.98262e+06
ExecutionTime = 287.41 s  ClockTime = 288 s

Jacobian determinant max. 1.00972 min. 0.984064

Time = 29

Evolving solid solver
Solving the total Lagrangian form of the momentum equation for D
    Corr, res, relRes, matRes, iters
    100, 2.59007e-05, 0.00112257, 0, 0
    200, 2.23667e-05, 0.00315195, 0, 0
    300, 2.37394e-05, 0.00512164, 0, 0
    400, 3.52821e-05, 0.00366144, 0, 0
    500, 2.70692e-05, 0.00307754, 0, 0
    600, 1.91314e-05, 0.00145405, 0, 0
    700, 6.4709e-06, 0.000320956, 0, 0
    800, 2.43023e-06, 0.000210368, 0, 0
    900, 1.73516e-06, 0.000158296, 0, 0
    1000, 1.35915e-06, 0.000134557, 0, 0
    1100, 1.15532e-06, 0.000114779, 0, 0
    1200, 9.71776e-07, 9.31722e-05, 0, 0
    1300, 8.48454e-07, 7.61105e-05, 0, 0
    1400, 7.43534e-07, 6.12168e-05, 0, 0
    1500, 6.50231e-07, 4.87224e-05, 0, 0
    1600, 5.68422e-07, 3.82912e-05, 0, 0
    1700, 5.02241e-07, 2.96906e-05, 0, 0
    1800, 4.46086e-07, 2.30882e-05, 0, 0
    1900, 3.99864e-07, 1.83772e-05, 0, 0
    2000, 3.60554e-07, 1.52634e-05, 0, 0
    2100, 3.27542e-07, 1.30875e-05, 0, 0
    2200, 3.00703e-07, 1.11844e-05, 0, 0
    2300, 2.77511e-07, 9.58601e-06, 0, 0
    2400, 2.5712e-07, 8.30354e-06, 0, 0
    2500, 2.40357e-07, 7.07423e-06, 0, 0
    2600, 2.24905e-07, 6.02003e-06, 0, 0
    2700, 2.10947e-07, 5.17753e-06, 0, 0
    2800, 1.99577e-07, 5.014e-06, 0, 0
    2900, 1.88073e-07, 4.88203e-06, 0, 0
    3000, 1.77386e-07, 4.78562e-06, 0, 0
    3100, 1.6744e-07, 4.8635e-06, 0, 0
    3200, 1.58527e-07, 4.88637e-06, 0, 0
    3300, 1.50034e-07, 4.79692e-06, 0, 0
    3400, 1.41944e-07, 4.58842e-06, 0, 0
    3500, 1.34023e-07, 4.49155e-06, 0, 0
    3600, 1.26629e-07, 4.37753e-06, 0, 0
    3700, 1.19712e-07, 4.25907e-06, 0, 0
    3800, 1.13242e-07, 4.13846e-06, 0, 0
    3900, 1.06779e-07, 4.02194e-06, 0, 0
    4000, 1.01061e-07, 4.02335e-06, 0, 0
    4100, 9.56453e-08, 3.79788e-06, 0, 0
    4200, 9.02283e-08, 3.70272e-06, 0, 0
    4300, 8.54396e-08, 3.61436e-06, 0, 0
    4400, 8.11501e-08, 3.48463e-06, 0, 0
    4500, 7.71879e-08, 3.33617e-06, 0, 0
    4600, 7.33041e-08, 3.19447e-06, 0, 0
    4700, 6.9665e-08, 3.05641e-06, 0, 0
    4800, 6.62143e-08, 2.92327e-06, 0, 0
    4900, 6.29395e-08, 2.79541e-06, 0, 0
    5000, 5.98175e-08, 2.67433e-06, 0, 0
    5100, 5.6872e-08, 2.55521e-06, 0, 0
    5200, 5.40771e-08, 2.44012e-06, 0, 0
    5300, 5.1424e-08, 2.32921e-06, 0, 0
    5400, 4.89039e-08, 2.22251e-06, 0, 0
    5500, 4.65101e-08, 2.11998e-06, 0, 0
    5600, 4.42363e-08, 2.0216e-06, 0, 0
    5700, 4.20751e-08, 1.9273e-06, 0, 0
    5800, 4.00235e-08, 1.837e-06, 0, 0
    5900, 3.80743e-08, 1.7506e-06, 0, 0
    6000, 3.62219e-08, 1.66801e-06, 0, 0
    6100, 3.44556e-08, 1.58914e-06, 0, 0
    6200, 3.27793e-08, 1.49316e-06, 0, 0
    6300, 3.11782e-08, 1.4414e-06, 0, 0
    6400, 2.96347e-08, 1.37565e-06, 0, 0
    6500, 2.82124e-08, 1.30754e-06, 0, 0
    6600, 2.68393e-08, 1.24507e-06, 0, 0
    6700, 2.55205e-08, 1.18786e-06, 0, 0
    6800, 2.42898e-08, 1.12893e-06, 0, 0
    6900, 2.31095e-08, 1.07508e-06, 0, 0
    7000, 2.19847e-08, 1.02387e-06, 0, 0
    7100, 2.08999e-08, 9.77128e-07, 0, 0
    7200, 1.98839e-08, 9.30419e-07, 0, 0
    7300, 1.893e-08, 8.84293e-07, 0, 0
    7400, 1.79974e-08, 8.4372e-07, 0, 0
    7500, 1.71359e-08, 8.02286e-07, 0, 0
    7600, 1.63027e-08, 7.51828e-07, 0, 0
    7700, 1.55027e-08, 7.26214e-07, 0, 0
    7800, 1.475e-08, 6.9208e-07, 0, 0
    7900, 1.40434e-08, 6.48672e-07, 0, 0
    8000, 1.33662e-08, 6.16921e-07, 0, 0
    8100, 1.27111e-08, 5.88927e-07, 0, 0
    8200, 1.20936e-08, 5.61613e-07, 0, 0
    8300, 1.1507e-08, 5.32943e-07, 0, 0
    8400, 1.09497e-08, 5.08588e-07, 0, 0
    8500, 1.04174e-08, 4.85191e-07, 0, 0
    The solver residual has converged
    8581, 9.99673e-09, 4.73622e-07, 0, 0

Max sigmaEq (von Mises stress) = 4.31902e+06
ExecutionTime = 295.01 s  ClockTime = 295 s

Jacobian determinant max. 1.01555 min. 0.977891

Time = 30

Evolving solid solver
Solving the total Lagrangian form of the momentum equation for D
    Corr, res, relRes, matRes, iters
    100, 2.48561e-05, 0.00114673, 0, 0
    200, 2.30745e-05, 0.00283827, 0, 0
    300, 2.2868e-05, 0.00515243, 0, 0
    400, 3.60459e-05, 0.00381082, 0, 0
    500, 2.5439e-05, 0.00307193, 0, 0
    600, 2.22343e-05, 0.00136927, 0, 0
    700, 5.53626e-06, 0.000348225, 0, 0
    800, 2.50327e-06, 0.000209992, 0, 0
    900, 1.69828e-06, 0.000142053, 0, 0
    1000, 1.37958e-06, 0.000113158, 0, 0
    1100, 1.08206e-06, 8.91906e-05, 0, 0
    1200, 8.66976e-07, 6.79346e-05, 0, 0
    1300, 7.1947e-07, 5.24399e-05, 0, 0
    1400, 6.24651e-07, 4.09032e-05, 0, 0
    1500, 5.46701e-07, 3.17308e-05, 0, 0
    1600, 4.826e-07, 2.49481e-05, 0, 0
    1700, 4.2889e-07, 1.9872e-05, 0, 0
    1800, 3.84677e-07, 1.81005e-05, 0, 0
    1900, 3.46832e-07, 1.37485e-05, 0, 0
    2000, 3.16083e-07, 1.14802e-05, 0, 0
    2100, 2.90361e-07, 9.88031e-06, 0, 0
    2200, 2.67899e-07, 8.60255e-06, 0, 0
    2300, 2.4951e-07, 7.36589e-06, 0, 0
    2400, 2.32496e-07, 6.32174e-06, 0, 0
    2500, 2.16862e-07, 5.76132e-06, 0, 0
    2600, 2.02891e-07, 5.48754e-06, 0, 0
    2700, 1.9082e-07, 5.20891e-06, 0, 0
    2800, 1.80041e-07, 5.1174e-06, 0, 0
    2900, 1.69649e-07, 4.94582e-06, 0, 0
    3000, 1.6005e-07, 4.75714e-06, 0, 0
    3100, 1.51036e-07, 4.79681e-06, 0, 0
    3200, 1.42911e-07, 4.62456e-06, 0, 0
    3300, 1.35075e-07, 4.45553e-06, 0, 0
    3400, 1.27827e-07, 4.31895e-06, 0, 0
    3500, 1.20966e-07, 4.17079e-06, 0, 0
    3600, 1.14531e-07, 4.0233e-06, 0, 0
    3700, 1.08478e-07, 3.87711e-06, 0, 0
    3800, 1.02773e-07, 3.73232e-06, 0, 0
    3900, 9.7005e-08, 3.5892e-06, 0, 0
    4000, 9.21528e-08, 3.47588e-06, 0, 0
    4100, 8.70089e-08, 3.36722e-06, 0, 0
    4200, 8.23723e-08, 3.26097e-06, 0, 0
    4300, 7.84563e-08, 3.13944e-06, 0, 0
    4400, 7.41727e-08, 3.08819e-06, 0, 0
    4500, 7.08311e-08, 2.95829e-06, 0, 0
    4600, 6.72334e-08, 2.83635e-06, 0, 0
    4700, 6.4126e-08, 2.74793e-06, 0, 0
    4800, 6.08998e-08, 2.58986e-06, 0, 0
    4900, 5.80479e-08, 2.48133e-06, 0, 0
    5000, 5.52224e-08, 2.41675e-06, 0, 0
    5100, 5.25273e-08, 2.31417e-06, 0, 0
    5200, 4.99803e-08, 2.20895e-06, 0, 0
    5300, 4.75585e-08, 2.11249e-06, 0, 0
    5400, 4.52672e-08, 2.01828e-06, 0, 0
    5500, 4.31104e-08, 1.9255e-06, 0, 0
    5600, 4.10375e-08, 1.81042e-06, 0, 0
    5700, 3.90606e-08, 1.7552e-06, 0, 0
    5800, 3.71881e-08, 1.67396e-06, 0, 0
    5900, 3.54118e-08, 1.57468e-06, 0, 0
    6000, 3.36966e-08, 1.52599e-06, 0, 0
    6100, 3.21023e-08, 1.43401e-06, 0, 0
    6200, 3.05712e-08, 1.36871e-06, 0, 0
    6300, 2.90983e-08, 1.3247e-06, 0, 0
    6400, 2.77049e-08, 1.24553e-06, 0, 0
    6500, 2.63945e-08, 1.20501e-06, 0, 0
    6600, 2.51361e-08, 1.13365e-06, 0, 0
    6700, 2.39283e-08, 1.08177e-06, 0, 0
    6800, 2.27765e-08, 1.03109e-06, 0, 0
    6900, 2.16592e-08, 9.84429e-07, 0, 0
    7000, 2.06107e-08, 9.39606e-07, 0, 0
    7100, 1.96221e-08, 8.96708e-07, 0, 0
    7200, 1.86869e-08, 8.55642e-07, 0, 0
    7300, 1.77993e-08, 8.16417e-07, 0, 0
    7400, 1.6954e-08, 7.78046e-07, 0, 0
    7500, 1.61538e-08, 7.42327e-07, 0, 0
    7600, 1.539e-08, 7.07344e-07, 0, 0
    7700, 1.46655e-08, 6.74791e-07, 0, 0
    7800, 1.39736e-08, 6.4402e-07, 0, 0
    7900, 1.33132e-08, 6.12404e-07, 0, 0
    8000, 1.26871e-08, 5.8491e-07, 0, 0
    8100, 1.20903e-08, 5.58338e-07, 0, 0
    8200, 1.15225e-08, 5.32757e-07, 0, 0
    8300, 1.09815e-08, 5.08215e-07, 0, 0
    8400, 1.04661e-08, 4.84719e-07, 0, 0
    The solver residual has converged
    8493, 9.99741e-09, 4.63107e-07, 0, 0

Max sigmaEq (von Mises stress) = 4.68639e+06
ExecutionTime = 302.76 s  ClockTime = 303 s

Jacobian determinant max. 1.01322 min. 0.976668

--> FOAM Warning : 
    From function nonLinearGeometryTotalLagrangianTotalDisplacement::end()
    in file solidModels/solidModel/solidModel.C at line 1741
    The maximum momentum correctors were reached in 1 time-steps


End

