/*---------------------------------------------------------------------------*\
| =========                 |                                                 |
| \\      /  F ield         | foam-extend: Open Source CFD                    |
|  \\    /   O peration     | Version:     4.1                                |
|   \\  /    A nd           | Web:         http://www.foam-extend.org         |
|    \\/     M anipulation  | For copyright notice see file Copyright         |
\*---------------------------------------------------------------------------*/
Build  : 4.1-70b064d0f326
Exec   : solids4Foam
Date   : Dec 15 2022
Time   : 14:20:21
Host   : "iloliveira"
PID    : 377436
CtrlDict : "/home/iloliveira/foam/solids4foam-fork-fe41/tutorials/solids/hyperelasticity/cylinderCrushBijelonja/system/controlDict"
Case   : /home/iloliveira/foam/solids4foam-fork-fe41/tutorials/solids/hyperelasticity/cylinderCrushBijelonja
nProcs : 1
sigFpe : Enabling floating point exception trapping (FOAM_SIGFPE).
allowSystemOperations : Disallowing user-supplied system call operations

// * * * * * * * * * * * * * * * * * * * * * * * * * * * * * * * * * * * * * //
Create time

/*---------------------------------------------------------------------------*\
|    For further information on the solids4Foam toolbox implementations,      |
|    please see the following publications:                                   |
|                                                                             |
|    P. Cardiff, A Karac, P. De Jaeger, H. Jasak, J. Nagy, A. Ivankovic,      |
|    Z. Tukovic: An open-source finite volume toolbox for solid mechanics and |
|    fluid-solid interaction simulations. arXiv:1808.10736v2, 2018, available |
|    at https://arxiv.org/abs/1808.10736.                                     |
|                                                                             |
|    Z. Tukovic, A. Karac, P. Cardiff, H. Jasak, A. Ivankovic: OpenFOAM       |
|    finite volume solver for fluid-solid interaction.  Transactions of       |
|    Famena, 42 (3), pp. 1-31, 2018, 10.21278/TOF.42301.                      |
\*---------------------------------------------------------------------------*/

Selecting physicsModel solidModel
Selecting solidModel nonLinearGeometryTotalLagrangian
Selecting dynamicFvMesh staticFvMesh
Creating fixedDisplacement boundary condition
    displacement is time-varying
Symmetry boundary condition with non-orthogonal correction
Symmetry boundary condition with non-orthogonal correction
    under-relaxation method: fixed
Creating the mechanicalModel
Selecting mechanical law MooneyRivlinElastic
    Laplacian equation will be solved for pressure
    pressureSmoothingScaleFactor: 100
Material properties 
    max(c10) = 293000
    max(c01) = 177000
    max(c11) = 0
    max(mu) = 940000
    max(K) = 1.41e+09
Reading individual shadowPatch
    solidContact: topContact
        useNewPointDistanceMethod: false
        projectPointsToPatchBoundary: false
        usePrevCandidateMasterNeighbors: false
    Normal contact model: standardPenalty
    Initialising stored previous normalPenaltyFactors
    Friction contact model: frictionless
    normal penalty factor: 8.63995e+10
Creating displacement function object
    region = region0
    distance from specified point is 0
Creating forceCylinder function object
Creating Jacob function object
Jacobian determinant max. 1 min. 1

Time = 1

Evolving solid solver
Solving the total Lagrangian form of the momentum equation for DD
setCellDisplacements: reading cellDisplacements
    Corr, res, relRes, matRes, iters
    100, 0.000244563, 0.00232131, 0, 0
    200, 0.000109187, 0.000812646, 0, 0
    300, 9.07574e-05, 0.00113737, 0, 0
    400, 7.96212e-05, 0.00114066, 0, 0
    500, 7.34671e-05, 0.00111079, 0, 0
    600, 7.0496e-05, 0.00108414, 0, 0
    700, 6.88916e-05, 0.00106303, 0, 0
    800, 6.49913e-05, 0.00104573, 0, 0
    900, 5.89474e-05, 0.00103112, 0, 0
    1000, 5.39765e-05, 0.00101824, 0, 0
    1100, 4.92273e-05, 0.00100651, 0, 0
    1200, 4.51541e-05, 0.00099561, 0, 0
    1300, 4.14572e-05, 0.000982688, 0, 0
    1400, 3.8094e-05, 0.00096867, 0, 0
    1500, 3.51387e-05, 0.000954985, 0, 0
    1600, 3.53761e-05, 0.000941545, 0, 0
    1700, 3.62441e-05, 0.000927332, 0, 0
    1800, 3.72712e-05, 0.000911078, 0, 0
    1900, 3.8427e-05, 0.000895544, 0, 0
    2000, 3.9633e-05, 0.000879599, 0, 0
    2100, 2.86271e-05, 0.000329445, 0, 0
    2200, 2.53612e-05, 0.000248435, 0, 0
    2300, 2.26315e-05, 0.000212209, 0, 0
    2400, 2.06066e-05, 0.000175243, 0, 0
    2500, 1.92284e-05, 0.000150838, 0, 0
    2600, 1.79688e-05, 0.000130764, 0, 0
    2700, 1.68916e-05, 0.000115034, 0, 0
    2800, 1.59567e-05, 0.000102119, 0, 0
    2900, 1.51524e-05, 9.12627e-05, 0, 0
    3000, 1.44147e-05, 8.22066e-05, 0, 0
    3100, 1.37124e-05, 7.45518e-05, 0, 0
    3200, 1.30461e-05, 6.80013e-05, 0, 0
    3300, 1.24199e-05, 6.25231e-05, 0, 0
    3400, 1.18306e-05, 5.78399e-05, 0, 0
    3500, 1.12722e-05, 5.37074e-05, 0, 0
    3600, 1.07419e-05, 5.00292e-05, 0, 0
    3700, 1.02407e-05, 4.67227e-05, 0, 0
    3800, 9.76115e-06, 4.37325e-05, 0, 0
    3900, 9.30455e-06, 4.10116e-05, 0, 0
    4000, 8.87145e-06, 3.85205e-05, 0, 0
    4100, 8.45823e-06, 3.62302e-05, 0, 0
    4200, 8.06402e-06, 3.42697e-05, 0, 0
    4300, 7.68771e-06, 3.24576e-05, 0, 0
    4400, 7.32799e-06, 3.07604e-05, 0, 0
    4500, 6.98459e-06, 2.91662e-05, 0, 0
    4600, 6.81677e-06, 3.02148e-05, 0, 0
    4700, 6.48349e-06, 2.85851e-05, 0, 0
    4800, 6.17723e-06, 2.71287e-05, 0, 0
    4900, 5.88545e-06, 2.57531e-05, 0, 0
    5000, 5.60627e-06, 2.44557e-05, 0, 0
    5100, 5.34079e-06, 2.32287e-05, 0, 0
    5200, 5.08757e-06, 2.20672e-05, 0, 0
    5300, 4.84599e-06, 2.09681e-05, 0, 0
    5400, 4.61575e-06, 1.99277e-05, 0, 0
    5500, 4.39633e-06, 1.89421e-05, 0, 0
    5600, 4.18724e-06, 1.80079e-05, 0, 0
    5700, 3.98803e-06, 1.71566e-05, 0, 0
    5800, 3.79824e-06, 1.63503e-05, 0, 0
    5900, 3.61756e-06, 1.55821e-05, 0, 0
    6000, 3.44553e-06, 1.48501e-05, 0, 0
    6100, 3.28167e-06, 1.41527e-05, 0, 0
    6200, 3.1256e-06, 1.3488e-05, 0, 0
    6300, 2.97703e-06, 1.28547e-05, 0, 0
    6400, 2.83569e-06, 1.22511e-05, 0, 0
    6500, 2.70111e-06, 1.16758e-05, 0, 0
    6600, 2.57293e-06, 1.11276e-05, 0, 0
    6700, 2.45086e-06, 1.06133e-05, 0, 0
    6800, 2.33476e-06, 1.01321e-05, 0, 0
    6900, 2.22431e-06, 9.67212e-06, 0, 0
    7000, 2.12217e-06, 9.35544e-06, 0, 0
    7100, 2.01763e-06, 8.79236e-06, 0, 0
    7200, 1.86795e-06, 7.62424e-06, 0, 0
    7300, 1.81845e-06, 8.24499e-06, 0, 0
    7400, 1.75243e-06, 7.57726e-06, 0, 0
    7500, 1.6534e-06, 6.68372e-06, 0, 0
    7600, 1.57598e-06, 7.20483e-06, 0, 0
    7700, 1.47233e-06, 6.04285e-06, 0, 0
    7800, 1.43713e-06, 6.45588e-06, 0, 0
    7900, 1.33335e-06, 5.74203e-06, 0, 0
    8000, 1.31652e-06, 5.65413e-06, 0, 0
    8100, 1.2411e-06, 5.72196e-06, 0, 0
    8200, 1.19722e-06, 5.1698e-06, 0, 0
    8300, 1.1373e-06, 5.09224e-06, 0, 0
    8400, 1.08125e-06, 4.79009e-06, 0, 0
    8500, 1.0389e-06, 4.45485e-06, 0, 0
    8600, 9.79293e-07, 4.544e-06, 0, 0
    8700, 9.16013e-07, 3.82514e-06, 0, 0
    8800, 8.96974e-07, 4.07961e-06, 0, 0
    8900, 8.54474e-07, 3.78156e-06, 0, 0
    9000, 8.19928e-07, 3.63319e-06, 0, 0
    9100, 7.76256e-07, 3.6104e-06, 0, 0
    9200, 7.22124e-07, 3.01306e-06, 0, 0
    9300, 7.06155e-07, 3.27571e-06, 0, 0
    9400, 6.77601e-07, 2.9597e-06, 0, 0
    9500, 6.46923e-07, 2.93327e-06, 0, 0
    9600, 6.15801e-07, 2.85945e-06, 0, 0
    9700, 5.90075e-07, 2.63876e-06, 0, 0
    9800, 5.60032e-07, 2.61969e-06, 0, 0
    9900, 5.36813e-07, 2.32513e-06, 0, 0
    10000, 5.08536e-07, 2.39053e-06, 0, 0
    10100, 4.87862e-07, 2.12303e-06, 0, 0
    10200, 4.64728e-07, 2.16712e-06, 0, 0
    10300, 4.32037e-07, 1.84343e-06, 0, 0
    10400, 4.23969e-07, 1.96778e-06, 0, 0
    10500, 3.94364e-07, 1.69465e-06, 0, 0
    10600, 3.86604e-07, 1.79001e-06, 0, 0
    10700, 3.70183e-07, 1.67112e-06, 0, 0
    10800, 3.52959e-07, 1.6127e-06, 0, 0
    10900, 3.37246e-07, 1.53205e-06, 0, 0
    11000, 3.22099e-07, 1.46264e-06, 0, 0
    11100, 3.07637e-07, 1.39574e-06, 0, 0
    11200, 2.93839e-07, 1.33184e-06, 0, 0
    11300, 2.80655e-07, 1.27111e-06, 0, 0
    11400, 2.68057e-07, 1.21323e-06, 0, 0
    11500, 2.56022e-07, 1.15808e-06, 0, 0
    11600, 2.44536e-07, 1.10552e-06, 0, 0
    11700, 2.33576e-07, 1.05543e-06, 0, 0
    11800, 2.23105e-07, 1.00767e-06, 0, 0
    11900, 2.1311e-07, 9.62139e-07, 0, 0
    12000, 2.03566e-07, 9.18721e-07, 0, 0
    12100, 1.94467e-07, 8.77314e-07, 0, 0
    12200, 1.85781e-07, 8.37818e-07, 0, 0
    12300, 1.77483e-07, 8.00142e-07, 0, 0
    12400, 1.69554e-07, 7.64196e-07, 0, 0
    12500, 1.61983e-07, 7.29898e-07, 0, 0
    12600, 1.54754e-07, 6.97168e-07, 0, 0
    12700, 1.47846e-07, 6.65932e-07, 0, 0
    12800, 1.41244e-07, 6.36119e-07, 0, 0
    12900, 1.34936e-07, 6.0766e-07, 0, 0
    13000, 1.28913e-07, 5.80492e-07, 0, 0
    13100, 1.23158e-07, 5.54757e-07, 0, 0
    13200, 1.1766e-07, 5.30214e-07, 0, 0
    13300, 1.12407e-07, 5.06768e-07, 0, 0
    13400, 1.07388e-07, 4.84369e-07, 0, 0
    13500, 1.02593e-07, 4.62968e-07, 0, 0
    13600, 9.80134e-08, 4.42519e-07, 0, 0
    13700, 9.36401e-08, 4.2298e-07, 0, 0
    13800, 8.94627e-08, 4.04308e-07, 0, 0
    13900, 8.54722e-08, 3.86464e-07, 0, 0
    14000, 8.16596e-08, 3.69411e-07, 0, 0
    14100, 7.80198e-08, 3.53114e-07, 0, 0
    14200, 7.4543e-08, 3.37537e-07, 0, 0
    14300, 7.12214e-08, 3.22649e-07, 0, 0
    14400, 6.80486e-08, 3.08419e-07, 0, 0
    14500, 6.50178e-08, 2.94817e-07, 0, 0
    14600, 6.21215e-08, 2.81816e-07, 0, 0
    14700, 5.93537e-08, 2.69388e-07, 0, 0
    14800, 5.67089e-08, 2.57508e-07, 0, 0
    14900, 5.41821e-08, 2.46151e-07, 0, 0
    15000, 5.17675e-08, 2.35295e-07, 0, 0
    15100, 4.94603e-08, 2.24917e-07, 0, 0
    15200, 4.72555e-08, 2.14996e-07, 0, 0
    15300, 4.5149e-08, 2.05512e-07, 0, 0
    15400, 4.31369e-08, 1.96445e-07, 0, 0
    15500, 4.12143e-08, 1.87778e-07, 0, 0
    15600, 3.9377e-08, 1.79491e-07, 0, 0
    15700, 3.76213e-08, 1.7157e-07, 0, 0
    15800, 3.59441e-08, 1.63996e-07, 0, 0
    15900, 3.43417e-08, 1.56756e-07, 0, 0
    16000, 3.28105e-08, 1.49835e-07, 0, 0
    16100, 3.13473e-08, 1.43217e-07, 0, 0
    16200, 2.99491e-08, 1.36891e-07, 0, 0
    16300, 2.86131e-08, 1.30844e-07, 0, 0
    16400, 2.734e-08, 1.25062e-07, 0, 0
    16500, 2.61238e-08, 1.19535e-07, 0, 0
    16600, 2.49615e-08, 1.14251e-07, 0, 0
    16700, 2.38366e-08, 1.09207e-07, 0, 0
    16800, 2.27101e-08, 1.04362e-07, 0, 0
    Both residuals have converged
    16894, 2.17547e-08, 9.99789e-08, 0, 0

Max sigmaEq (von Mises stress) = 59942.6
ExecutionTime = 15.73 s  ClockTime = 16 s

Jacobian determinant max. 1.0062 min. 0.993923

Time = 2

Evolving solid solver
Solving the total Lagrangian form of the momentum equation for DD
    Corr, res, relRes, matRes, iters
    100, 2.13517e-05, 0.0259544, 0, 0
    200, 9.31548e-06, 0.00584913, 0, 0
    300, 9.01916e-06, 0.0021291, 0, 0
    400, 7.15385e-06, 0.00170461, 0, 0
    500, 6.59917e-06, 0.00123933, 0, 0
    600, 6.21835e-06, 0.000914327, 0, 0
    700, 5.86968e-06, 0.000718587, 0, 0
    800, 5.59001e-06, 0.000579575, 0, 0
    900, 5.33307e-06, 0.00047168, 0, 0
    1000, 5.09312e-06, 0.000395661, 0, 0
    1100, 4.87763e-06, 0.000338288, 0, 0
    1200, 4.67119e-06, 0.000291552, 0, 0
    1300, 4.46669e-06, 0.00025296, 0, 0
    1400, 4.26805e-06, 0.000221198, 0, 0
    1500, 4.07965e-06, 0.000194243, 0, 0
    1600, 3.90348e-06, 0.00017157, 0, 0
    1700, 3.73926e-06, 0.000152147, 0, 0
    1800, 3.57149e-06, 0.000136074, 0, 0
    1900, 3.41488e-06, 0.000121644, 0, 0
    2000, 3.26395e-06, 0.000109191, 0, 0
    2100, 3.12713e-06, 9.83402e-05, 0, 0
    2200, 2.96987e-06, 8.97747e-05, 0, 0
    2300, 2.82364e-06, 9.99398e-05, 0, 0
    2400, 2.69347e-06, 8.93811e-05, 0, 0
    2500, 2.56501e-06, 8.02995e-05, 0, 0
    2600, 2.44022e-06, 7.28253e-05, 0, 0
    2700, 2.3056e-06, 6.60089e-05, 0, 0
    2800, 2.18575e-06, 6.15455e-05, 0, 0
    2900, 2.10846e-06, 5.37338e-05, 0, 0
    3000, 1.97338e-06, 5.41177e-05, 0, 0
    3100, 1.88402e-06, 5.14786e-05, 0, 0
    3200, 1.80808e-06, 4.68948e-05, 0, 0
    3300, 1.69025e-06, 4.03693e-05, 0, 0
    3400, 1.60436e-06, 4.01048e-05, 0, 0
    3500, 1.54251e-06, 4.03678e-05, 0, 0
    3600, 1.46306e-06, 3.86955e-05, 0, 0
    3700, 1.3865e-06, 3.70406e-05, 0, 0
    3800, 1.3138e-06, 3.5439e-05, 0, 0
    3900, 1.24667e-06, 3.39651e-05, 0, 0
    4000, 1.1813e-06, 3.24634e-05, 0, 0
    4100, 1.11945e-06, 3.11112e-05, 0, 0
    4200, 1.06278e-06, 2.97537e-05, 0, 0
    4300, 1.00562e-06, 2.85098e-05, 0, 0
    4400, 9.54417e-07, 2.75329e-05, 0, 0
    4500, 9.04021e-07, 2.60764e-05, 0, 0
    4600, 8.57713e-07, 2.51729e-05, 0, 0
    4700, 8.12438e-07, 2.40674e-05, 0, 0
    4800, 7.69635e-07, 2.30076e-05, 0, 0
    4900, 7.29162e-07, 2.19902e-05, 0, 0
    5000, 6.90884e-07, 2.1013e-05, 0, 0
    5100, 6.5463e-07, 2.0076e-05, 0, 0
    5200, 6.20334e-07, 1.9177e-05, 0, 0
    5300, 5.8787e-07, 1.83145e-05, 0, 0
    5400, 5.57133e-07, 1.74884e-05, 0, 0
    5500, 5.28015e-07, 1.67095e-05, 0, 0
    5600, 5.00464e-07, 1.59715e-05, 0, 0
    5700, 4.74007e-07, 1.52117e-05, 0, 0
    5800, 4.49175e-07, 1.45785e-05, 0, 0
    5900, 4.25604e-07, 1.39437e-05, 0, 0
    6000, 4.03478e-07, 1.33203e-05, 0, 0
    6100, 3.82459e-07, 1.27235e-05, 0, 0
    6200, 3.62812e-07, 1.20828e-05, 0, 0
    6300, 3.43884e-07, 1.1536e-05, 0, 0
    6400, 3.25687e-07, 1.10758e-05, 0, 0
    6500, 3.0896e-07, 1.05112e-05, 0, 0
    6600, 2.92724e-07, 1.00791e-05, 0, 0
    6700, 2.77427e-07, 9.61838e-06, 0, 0
    6800, 2.62825e-07, 9.18611e-06, 0, 0
    6900, 2.46765e-07, 8.73126e-06, 0, 0
    7000, 2.33492e-07, 8.3253e-06, 0, 0
    7100, 2.21087e-07, 7.94098e-06, 0, 0
    7200, 2.09377e-07, 7.57388e-06, 0, 0
    7300, 1.98314e-07, 7.22308e-06, 0, 0
    7400, 1.87854e-07, 6.88788e-06, 0, 0
    7500, 1.77956e-07, 6.56761e-06, 0, 0
    7600, 1.68586e-07, 6.26164e-06, 0, 0
    7700, 1.59715e-07, 5.96936e-06, 0, 0
    7800, 1.51318e-07, 5.69323e-06, 0, 0
    7900, 1.43367e-07, 5.42943e-06, 0, 0
    8000, 1.35838e-07, 5.17727e-06, 0, 0
    8100, 1.28707e-07, 4.93627e-06, 0, 0
    8200, 1.21952e-07, 4.706e-06, 0, 0
    8300, 1.15554e-07, 4.486e-06, 0, 0
    8400, 1.09495e-07, 4.27586e-06, 0, 0
    8500, 1.03756e-07, 4.07518e-06, 0, 0
    8600, 9.83199e-08, 3.88354e-06, 0, 0
    8700, 9.31708e-08, 3.70059e-06, 0, 0
    8800, 8.82947e-08, 3.52586e-06, 0, 0
    8900, 8.36737e-08, 3.35927e-06, 0, 0
    9000, 7.93e-08, 3.20011e-06, 0, 0
    9100, 7.51552e-08, 3.04832e-06, 0, 0
    9200, 7.12268e-08, 2.90361e-06, 0, 0
    9300, 6.75076e-08, 2.76542e-06, 0, 0
    9400, 6.3983e-08, 2.63367e-06, 0, 0
    9500, 6.06436e-08, 2.50803e-06, 0, 0
    9600, 5.74799e-08, 2.38822e-06, 0, 0
    9700, 5.44825e-08, 2.27399e-06, 0, 0
    9800, 5.16432e-08, 2.16509e-06, 0, 0
    9900, 4.89534e-08, 2.06129e-06, 0, 0
    10000, 4.6405e-08, 1.96235e-06, 0, 0
    10100, 4.39908e-08, 1.86805e-06, 0, 0
    10200, 4.17044e-08, 1.7782e-06, 0, 0
    10300, 3.95387e-08, 1.69259e-06, 0, 0
    10400, 3.74867e-08, 1.61102e-06, 0, 0
    10500, 3.55429e-08, 1.53331e-06, 0, 0
    10600, 3.3804e-08, 1.45517e-06, 0, 0
    10700, 3.20608e-08, 1.38511e-06, 0, 0
    10800, 3.04046e-08, 1.31839e-06, 0, 0
    10900, 2.88318e-08, 1.25486e-06, 0, 0
    11000, 2.73411e-08, 1.19436e-06, 0, 0
    11100, 2.59291e-08, 1.13674e-06, 0, 0
    11200, 2.45913e-08, 1.08186e-06, 0, 0
    11300, 2.33239e-08, 1.02959e-06, 0, 0
    11400, 2.21234e-08, 9.79822e-07, 0, 0
    11500, 2.09861e-08, 9.32427e-07, 0, 0
    11600, 1.99103e-08, 8.87298e-07, 0, 0
    11700, 1.88933e-08, 8.44329e-07, 0, 0
    11800, 1.79292e-08, 8.03419e-07, 0, 0
    11900, 1.70155e-08, 7.64474e-07, 0, 0
    12000, 1.61495e-08, 7.27401e-07, 0, 0
    12100, 1.53287e-08, 6.92112e-07, 0, 0
    12200, 1.45506e-08, 6.58523e-07, 0, 0
    12300, 1.3813e-08, 6.26554e-07, 0, 0
    12400, 1.30986e-08, 5.92776e-07, 0, 0
    12500, 1.24325e-08, 5.65005e-07, 0, 0
    12600, 1.18063e-08, 5.37833e-07, 0, 0
    12700, 1.12145e-08, 5.11926e-07, 0, 0
    12800, 1.06531e-08, 4.87245e-07, 0, 0
    12900, 1.01199e-08, 4.63737e-07, 0, 0
    The solver residual has converged
    12924, 9.99594e-09, 4.58264e-07, 0, 0

Max sigmaEq (von Mises stress) = 128834
ExecutionTime = 27.42 s  ClockTime = 28 s

Jacobian determinant max. 1.00836 min. 0.990595

Time = 3

Evolving solid solver
Solving the total Lagrangian form of the momentum equation for DD
    Corr, res, relRes, matRes, iters
    100, 4.29146e-05, 0.00907377, 0, 0
    200, 2.68704e-05, 0.00555264, 0, 0
    300, 1.26781e-05, 0.00599249, 0, 0
    400, 6.37379e-06, 0.0021602, 0, 0
    500, 4.89998e-06, 0.00151505, 0, 0
    600, 3.14431e-06, 0.000573836, 0, 0
    700, 2.23976e-06, 0.000653715, 0, 0
    800, 2.08483e-06, 0.000491798, 0, 0
    900, 1.95259e-06, 0.000382063, 0, 0
    1000, 1.81734e-06, 0.000316758, 0, 0
    1100, 1.70082e-06, 0.000265059, 0, 0
    1200, 1.59951e-06, 0.000220038, 0, 0
    1300, 1.50699e-06, 0.000183157, 0, 0
    1400, 1.41754e-06, 0.000153576, 0, 0
    1500, 1.33269e-06, 0.000129494, 0, 0
    1600, 1.25283e-06, 0.000109561, 0, 0
    1700, 1.17803e-06, 9.32539e-05, 0, 0
    1800, 1.1092e-06, 7.94549e-05, 0, 0
    1900, 1.05047e-06, 6.65012e-05, 0, 0
    2000, 9.9126e-07, 5.74955e-05, 0, 0
    2100, 9.31644e-07, 5.66991e-05, 0, 0
    2200, 8.79461e-07, 5.38508e-05, 0, 0
    2300, 8.27211e-07, 5.12491e-05, 0, 0
    2400, 7.818e-07, 4.7503e-05, 0, 0
    2500, 7.45836e-07, 4.54387e-05, 0, 0
    2600, 6.83057e-07, 4.76391e-05, 0, 0
    2700, 6.56591e-07, 4.26189e-05, 0, 0
    2800, 6.18193e-07, 4.08341e-05, 0, 0
    2900, 5.82227e-07, 3.8785e-05, 0, 0
    3000, 5.48969e-07, 3.66482e-05, 0, 0
    3100, 5.16645e-07, 3.45744e-05, 0, 0
    3200, 4.85679e-07, 3.26344e-05, 0, 0
    3300, 4.57972e-07, 3.07501e-05, 0, 0
    3400, 4.31304e-07, 2.90238e-05, 0, 0
    3500, 4.04663e-07, 2.74052e-05, 0, 0
    3600, 3.78865e-07, 2.5799e-05, 0, 0
    3700, 3.57754e-07, 2.43417e-05, 0, 0
    3800, 3.35847e-07, 2.28657e-05, 0, 0
    3900, 3.17414e-07, 2.15574e-05, 0, 0
    4000, 2.98708e-07, 2.02578e-05, 0, 0
    4100, 2.81539e-07, 1.90519e-05, 0, 0
    4200, 2.65332e-07, 1.79214e-05, 0, 0
    4300, 2.50055e-07, 1.68583e-05, 0, 0
    4400, 2.35622e-07, 1.58577e-05, 0, 0
    4500, 2.2219e-07, 1.48363e-05, 0, 0
    4600, 2.09571e-07, 1.3997e-05, 0, 0
    4700, 1.97476e-07, 1.31734e-05, 0, 0
    4800, 1.86018e-07, 1.23999e-05, 0, 0
    4900, 1.75174e-07, 1.16719e-05, 0, 0
    5000, 1.64925e-07, 1.09864e-05, 0, 0
    5100, 1.55247e-07, 1.03407e-05, 0, 0
    5200, 1.46109e-07, 9.73253e-06, 0, 0
    5300, 1.37489e-07, 9.1599e-06, 0, 0
    5400, 1.28668e-07, 8.37751e-06, 0, 0
    5500, 1.21047e-07, 8.34235e-06, 0, 0
    5600, 1.13319e-07, 8.01181e-06, 0, 0
    5700, 1.06751e-07, 8.28262e-06, 0, 0
    5800, 9.95852e-08, 7.27105e-06, 0, 0
    5900, 9.43815e-08, 7.32313e-06, 0, 0
    6000, 8.82748e-08, 5.60518e-06, 0, 0
    6100, 8.33474e-08, 5.9263e-06, 0, 0
    6200, 7.79222e-08, 6.07066e-06, 0, 0
    6300, 7.3054e-08, 5.41658e-06, 0, 0
    6400, 6.89708e-08, 5.44127e-06, 0, 0
    6500, 6.44522e-08, 4.83312e-06, 0, 0
    6600, 6.08681e-08, 4.81874e-06, 0, 0
    6700, 5.69471e-08, 4.23081e-06, 0, 0
    6800, 5.46058e-08, 3.89937e-06, 0, 0
    6900, 5.03162e-08, 3.71223e-06, 0, 0
    7000, 4.80367e-08, 3.34764e-06, 0, 0
    7100, 4.44506e-08, 3.00962e-06, 0, 0
    7200, 4.11683e-08, 3.22303e-06, 0, 0
    7300, 3.87159e-08, 3.02526e-06, 0, 0
    7400, 3.64296e-08, 2.8435e-06, 0, 0
    7500, 3.42097e-08, 2.66457e-06, 0, 0
    7600, 3.21124e-08, 2.49831e-06, 0, 0
    7700, 3.01448e-08, 2.34343e-06, 0, 0
    7800, 2.82962e-08, 2.19832e-06, 0, 0
    7900, 2.65583e-08, 2.06213e-06, 0, 0
    8000, 2.4925e-08, 1.9343e-06, 0, 0
    8100, 2.33905e-08, 1.81436e-06, 0, 0
    8200, 2.19495e-08, 1.70181e-06, 0, 0
    8300, 2.05968e-08, 1.59619e-06, 0, 0
    8400, 1.93267e-08, 1.49707e-06, 0, 0
    8500, 1.81341e-08, 1.40406e-06, 0, 0
    8600, 1.70142e-08, 1.31677e-06, 0, 0
    8700, 1.59628e-08, 1.23486e-06, 0, 0
    8800, 1.49779e-08, 1.16144e-06, 0, 0
    8900, 1.4077e-08, 1.08612e-06, 0, 0
    9000, 1.31665e-08, 9.47805e-07, 0, 0
    9100, 1.24547e-08, 9.64135e-07, 0, 0
    9200, 1.16221e-08, 8.54468e-07, 0, 0
    9300, 1.09233e-08, 8.42187e-07, 0, 0
    9400, 1.02656e-08, 7.92165e-07, 0, 0
    The solver residual has converged
    9444, 9.97375e-09, 7.79247e-07, 0, 0

Max sigmaEq (von Mises stress) = 204586
ExecutionTime = 36.03 s  ClockTime = 36 s

Jacobian determinant max. 1.00695 min. 0.993547

Time = 4

Evolving solid solver
Solving the total Lagrangian form of the momentum equation for DD
    Corr, res, relRes, matRes, iters
    100, 5.62594e-05, 0.00313796, 0, 0
    200, 8.77994e-05, 0.0168435, 0, 0
    300, 4.31964e-05, 0.0129062, 0, 0
    400, 1.30468e-05, 0.00239695, 0, 0
    500, 6.89462e-06, 0.00168853, 0, 0
    600, 4.1632e-06, 0.000267916, 0, 0
    700, 3.71176e-06, 0.000250582, 0, 0
    800, 3.1947e-06, 0.000161843, 0, 0
    900, 2.894e-06, 0.000103469, 0, 0
    1000, 2.6776e-06, 9.06871e-05, 0, 0
    1100, 2.51706e-06, 7.99116e-05, 0, 0
    1200, 2.35739e-06, 7.18584e-05, 0, 0
    1300, 2.2232e-06, 6.54822e-05, 0, 0
    1400, 2.07894e-06, 5.90331e-05, 0, 0
    1500, 1.95873e-06, 5.44697e-05, 0, 0
    1600, 1.84722e-06, 5.0403e-05, 0, 0
    1700, 1.74048e-06, 4.60511e-05, 0, 0
    1800, 1.64412e-06, 4.3075e-05, 0, 0
    1900, 1.55194e-06, 4.0207e-05, 0, 0
    2000, 1.47095e-06, 3.79272e-05, 0, 0
    2100, 1.39213e-06, 3.57483e-05, 0, 0
    2200, 1.31621e-06, 3.44966e-05, 0, 0
    2300, 1.24543e-06, 3.25468e-05, 0, 0
    2400, 1.17929e-06, 3.07121e-05, 0, 0
    2500, 1.10136e-06, 2.96351e-05, 0, 0
    2600, 1.06267e-06, 2.87312e-05, 0, 0
    2700, 1.00745e-06, 2.71235e-05, 0, 0
    2800, 9.55752e-07, 2.62643e-05, 0, 0
    2900, 9.05543e-07, 2.40243e-05, 0, 0
    3000, 8.61864e-07, 2.27636e-05, 0, 0
    3100, 8.18058e-07, 2.15532e-05, 0, 0
    3200, 7.75126e-07, 2.05083e-05, 0, 0
    3300, 7.34365e-07, 1.95535e-05, 0, 0
    3400, 6.96909e-07, 1.86556e-05, 0, 0
    3500, 6.60079e-07, 1.77499e-05, 0, 0
    3600, 6.25467e-07, 1.69191e-05, 0, 0
    3700, 5.92612e-07, 1.61851e-05, 0, 0
    3800, 5.60603e-07, 1.54301e-05, 0, 0
    3900, 5.33847e-07, 1.44721e-05, 0, 0
    4000, 5.06479e-07, 1.38038e-05, 0, 0
    4100, 4.79896e-07, 1.3197e-05, 0, 0
    4200, 4.54969e-07, 1.26112e-05, 0, 0
    4300, 4.31468e-07, 1.20491e-05, 0, 0
    4400, 4.0948e-07, 1.1488e-05, 0, 0
    4500, 3.88501e-07, 1.10602e-05, 0, 0
    4600, 3.68492e-07, 1.05615e-05, 0, 0
    4700, 3.49574e-07, 1.00828e-05, 0, 0
    4800, 3.31688e-07, 9.63626e-06, 0, 0
    4900, 3.14453e-07, 9.2426e-06, 0, 0
    5000, 2.98536e-07, 8.82539e-06, 0, 0
    5100, 2.83396e-07, 8.43311e-06, 0, 0
    5200, 2.6898e-07, 8.0532e-06, 0, 0
    5300, 2.55559e-07, 7.68458e-06, 0, 0
    5400, 2.42576e-07, 7.34493e-06, 0, 0
    5500, 2.3023e-07, 7.02116e-06, 0, 0
    5600, 2.18263e-07, 6.72124e-06, 0, 0
    5700, 2.07445e-07, 6.41184e-06, 0, 0
    5800, 1.97036e-07, 6.1207e-06, 0, 0
    5900, 1.87245e-07, 5.83943e-06, 0, 0
    6000, 1.77777e-07, 5.58165e-06, 0, 0
    6100, 1.68774e-07, 5.33173e-06, 0, 0
    6200, 1.60535e-07, 5.0802e-06, 0, 0
    6300, 1.52218e-07, 4.85954e-06, 0, 0
    6400, 1.44889e-07, 4.63025e-06, 0, 0
    6500, 1.37619e-07, 4.43765e-06, 0, 0
    6600, 1.3076e-07, 4.22151e-06, 0, 0
    6700, 1.24158e-07, 4.03405e-06, 0, 0
    6800, 1.17793e-07, 3.85254e-06, 0, 0
    6900, 1.12094e-07, 3.68845e-06, 0, 0
    7000, 1.06505e-07, 3.52774e-06, 0, 0
    7100, 1.01214e-07, 3.36424e-06, 0, 0
    7200, 9.62583e-08, 3.21778e-06, 0, 0
    7300, 9.14352e-08, 3.06394e-06, 0, 0
    7400, 8.69131e-08, 2.9308e-06, 0, 0
    7500, 8.19016e-08, 2.78798e-06, 0, 0
    7600, 7.75431e-08, 2.67152e-06, 0, 0
    7700, 7.36534e-08, 2.54841e-06, 0, 0
    7800, 6.98998e-08, 2.42394e-06, 0, 0
    7900, 6.64283e-08, 2.31863e-06, 0, 0
    8000, 6.31165e-08, 2.21469e-06, 0, 0
    8100, 5.9981e-08, 2.11708e-06, 0, 0
    8200, 5.70033e-08, 2.02213e-06, 0, 0
    8300, 5.41695e-08, 1.9313e-06, 0, 0
    8400, 5.14828e-08, 1.84099e-06, 0, 0
    8500, 4.8961e-08, 1.76468e-06, 0, 0
    8600, 4.65401e-08, 1.68547e-06, 0, 0
    8700, 4.42244e-08, 1.60492e-06, 0, 0
    8800, 4.20386e-08, 1.5329e-06, 0, 0
    8900, 3.99628e-08, 1.46403e-06, 0, 0
    9000, 3.79915e-08, 1.39826e-06, 0, 0
    9100, 3.61192e-08, 1.33543e-06, 0, 0
    9200, 3.43406e-08, 1.27541e-06, 0, 0
    9300, 3.26711e-08, 1.22175e-06, 0, 0
    9400, 3.10672e-08, 1.16505e-06, 0, 0
    9500, 2.95424e-08, 1.11494e-06, 0, 0
    9600, 2.80912e-08, 1.06343e-06, 0, 0
    9700, 2.67134e-08, 1.01433e-06, 0, 0
    9800, 2.54025e-08, 9.68447e-07, 0, 0
    9900, 2.41588e-08, 9.24733e-07, 0, 0
    10000, 2.29834e-08, 8.84984e-07, 0, 0
    10100, 2.18503e-08, 8.43037e-07, 0, 0
    10200, 2.07814e-08, 8.04766e-07, 0, 0
    10300, 1.97693e-08, 7.69425e-07, 0, 0
    10400, 1.88007e-08, 7.34595e-07, 0, 0
    10500, 1.78802e-08, 7.01352e-07, 0, 0
    10600, 1.70052e-08, 6.69608e-07, 0, 0
    10700, 1.61739e-08, 6.39358e-07, 0, 0
    10800, 1.53836e-08, 6.10588e-07, 0, 0
    10900, 1.46278e-08, 5.84263e-07, 0, 0
    11000, 1.39136e-08, 5.56087e-07, 0, 0
    11100, 1.32344e-08, 5.3142e-07, 0, 0
    11200, 1.2588e-08, 5.0757e-07, 0, 0
    11300, 1.19636e-08, 4.82536e-07, 0, 0
    11400, 1.13594e-08, 4.61933e-07, 0, 0
    11500, 1.08111e-08, 4.41334e-07, 0, 0
    11600, 1.0289e-08, 4.21554e-07, 0, 0
    The solver residual has converged
    11658, 9.99815e-09, 4.10452e-07, 0, 0

Max sigmaEq (von Mises stress) = 275107
ExecutionTime = 46.58 s  ClockTime = 47 s

Jacobian determinant max. 1.01004 min. 0.991891

Time = 5

Evolving solid solver
Solving the total Lagrangian form of the momentum equation for DD
    Corr, res, relRes, matRes, iters
    100, 6.74854e-05, 0.00563535, 0, 0
    200, 0.000103774, 0.0210912, 0, 0
    300, 2.24193e-05, 0.00532529, 0, 0
    400, 1.08291e-05, 0.00241121, 0, 0
    500, 6.7059e-06, 0.000654379, 0, 0
    600, 3.73623e-06, 0.000416781, 0, 0
    700, 3.65337e-06, 0.000290721, 0, 0
    800, 3.35466e-06, 8.42834e-05, 0, 0
    900, 3.05517e-06, 0.000100567, 0, 0
    1000, 2.88234e-06, 8.73331e-05, 0, 0
    1100, 2.70088e-06, 8.10609e-05, 0, 0
    1200, 2.54201e-06, 7.50133e-05, 0, 0
    1300, 2.3994e-06, 6.99488e-05, 0, 0
    1400, 2.26658e-06, 6.54134e-05, 0, 0
    1500, 2.14158e-06, 6.13452e-05, 0, 0
    1600, 2.02394e-06, 5.76357e-05, 0, 0
    1700, 1.91339e-06, 5.42266e-05, 0, 0
    1800, 1.8093e-06, 5.10744e-05, 0, 0
    1900, 1.71158e-06, 4.81077e-05, 0, 0
    2000, 1.6182e-06, 4.55882e-05, 0, 0
    2100, 1.53001e-06, 4.32894e-05, 0, 0
    2200, 1.44851e-06, 4.10289e-05, 0, 0
    2300, 1.37234e-06, 3.88791e-05, 0, 0
    2400, 1.29824e-06, 3.69129e-05, 0, 0
    2500, 1.22852e-06, 3.50179e-05, 0, 0
    2600, 1.16315e-06, 3.32266e-05, 0, 0
    2700, 1.10132e-06, 3.15356e-05, 0, 0
    2800, 1.04288e-06, 2.99322e-05, 0, 0
    2900, 9.87629e-07, 2.84716e-05, 0, 0
    3000, 9.35664e-07, 2.71067e-05, 0, 0
    3100, 8.86157e-07, 2.565e-05, 0, 0
    3200, 8.41453e-07, 2.501e-05, 0, 0
    3300, 7.9672e-07, 2.33632e-05, 0, 0
    3400, 7.59771e-07, 2.25491e-05, 0, 0
    3500, 7.24927e-07, 2.10009e-05, 0, 0
    3600, 6.81407e-07, 2.02232e-05, 0, 0
    3700, 6.42212e-07, 1.95054e-05, 0, 0
    3800, 6.13379e-07, 1.85008e-05, 0, 0
    3900, 5.85099e-07, 1.76534e-05, 0, 0
    4000, 5.5238e-07, 1.66848e-05, 0, 0
    4100, 5.27013e-07, 1.54459e-05, 0, 0
    4200, 4.95237e-07, 1.52904e-05, 0, 0
    4300, 4.6881e-07, 1.46084e-05, 0, 0
    4400, 4.47249e-07, 1.36834e-05, 0, 0
    4500, 4.25827e-07, 1.3242e-05, 0, 0
    4600, 4.02454e-07, 1.24288e-05, 0, 0
    4700, 3.83415e-07, 1.18473e-05, 0, 0
    4800, 3.62021e-07, 1.12994e-05, 0, 0
    4900, 3.43284e-07, 1.07386e-05, 0, 0
    5000, 3.2575e-07, 1.02583e-05, 0, 0
    5100, 3.08808e-07, 9.76539e-06, 0, 0
    5200, 2.93108e-07, 9.30895e-06, 0, 0
    5300, 2.78123e-07, 8.87991e-06, 0, 0
    5400, 2.6429e-07, 8.46954e-06, 0, 0
    5500, 2.50684e-07, 8.12851e-06, 0, 0
    5600, 2.37997e-07, 7.74912e-06, 0, 0
    5700, 2.25938e-07, 7.33115e-06, 0, 0
    5800, 2.14534e-07, 6.98938e-06, 0, 0
    5900, 2.03715e-07, 6.66356e-06, 0, 0
    6000, 1.93451e-07, 6.35303e-06, 0, 0
    6100, 1.83719e-07, 6.10071e-06, 0, 0
    6200, 1.74485e-07, 5.77171e-06, 0, 0
    6300, 1.65728e-07, 5.54344e-06, 0, 0
    6400, 1.57547e-07, 5.25509e-06, 0, 0
    6500, 1.49534e-07, 5.03949e-06, 0, 0
    6600, 1.42162e-07, 4.78697e-06, 0, 0
    6700, 1.35054e-07, 4.56706e-06, 0, 0
    6800, 1.28298e-07, 4.35891e-06, 0, 0
    6900, 1.21886e-07, 4.16049e-06, 0, 0
    7000, 1.15799e-07, 3.97119e-06, 0, 0
    7100, 1.10022e-07, 3.79055e-06, 0, 0
    7200, 1.04537e-07, 3.61817e-06, 0, 0
    7300, 9.93305e-08, 3.45366e-06, 0, 0
    7400, 9.4389e-08, 3.29665e-06, 0, 0
    7500, 8.96964e-08, 3.1468e-06, 0, 0
    7600, 8.524e-08, 3.00378e-06, 0, 0
    7700, 8.10111e-08, 2.86728e-06, 0, 0
    7800, 7.69949e-08, 2.737e-06, 0, 0
    7900, 7.31912e-08, 2.61265e-06, 0, 0
    8000, 6.95831e-08, 2.49396e-06, 0, 0
    8100, 6.616e-08, 2.38068e-06, 0, 0
    8200, 6.29119e-08, 2.27255e-06, 0, 0
    8300, 5.98306e-08, 2.16895e-06, 0, 0
    8400, 5.6856e-08, 2.07697e-06, 0, 0
    8500, 5.4071e-08, 1.98239e-06, 0, 0
    8600, 5.14671e-08, 1.89394e-06, 0, 0
    8700, 4.89471e-08, 1.80065e-06, 0, 0
    8800, 4.65157e-08, 1.72349e-06, 0, 0
    8900, 4.42434e-08, 1.6449e-06, 0, 0
    9000, 4.21131e-08, 1.57264e-06, 0, 0
    9100, 4.00576e-08, 1.502e-06, 0, 0
    9200, 3.81078e-08, 1.42655e-06, 0, 0
    9300, 3.62492e-08, 1.37062e-06, 0, 0
    9400, 3.44822e-08, 1.3089e-06, 0, 0
    9500, 3.27982e-08, 1.24987e-06, 0, 0
    9600, 3.12127e-08, 1.19282e-06, 0, 0
    9700, 2.96957e-08, 1.13913e-06, 0, 0
    9800, 2.82523e-08, 1.08796e-06, 0, 0
    9900, 2.68814e-08, 1.03901e-06, 0, 0
    10000, 2.55775e-08, 9.92288e-07, 0, 0
    10100, 2.43364e-08, 9.47722e-07, 0, 0
    10200, 2.31575e-08, 9.05087e-07, 0, 0
    10300, 2.20361e-08, 8.64382e-07, 0, 0
    10400, 2.0969e-08, 8.25557e-07, 0, 0
    10500, 1.99555e-08, 7.88404e-07, 0, 0
    10600, 1.89907e-08, 7.52953e-07, 0, 0
    10700, 1.80731e-08, 7.19092e-07, 0, 0
    10800, 1.72002e-08, 6.86753e-07, 0, 0
    10900, 1.63701e-08, 6.55865e-07, 0, 0
    11000, 1.55806e-08, 6.26364e-07, 0, 0
    11100, 1.48295e-08, 5.98188e-07, 0, 0
    11200, 1.41161e-08, 5.6862e-07, 0, 0
    11300, 1.34612e-08, 5.45208e-07, 0, 0
    11400, 1.28103e-08, 5.18738e-07, 0, 0
    11500, 1.21918e-08, 4.97823e-07, 0, 0
    11600, 1.16015e-08, 4.74527e-07, 0, 0
    11700, 1.10504e-08, 4.52151e-07, 0, 0
    11800, 1.05169e-08, 4.31997e-07, 0, 0
    11900, 1.00006e-08, 4.13146e-07, 0, 0
    The solver residual has converged
    11901, 9.99564e-09, 4.12029e-07, 0, 0

Max sigmaEq (von Mises stress) = 341034
ExecutionTime = 57.73 s  ClockTime = 58 s

Jacobian determinant max. 1.00678 min. 0.989258

Time = 6

Evolving solid solver
Solving the total Lagrangian form of the momentum equation for DD
    Corr, res, relRes, matRes, iters
    100, 8.37225e-05, 0.0208161, 0, 0
    200, 5.53872e-05, 0.0116065, 0, 0
    300, 1.62935e-05, 0.00447437, 0, 0
    400, 6.51561e-06, 0.00220619, 0, 0
    500, 3.63241e-06, 0.000485623, 0, 0
    600, 2.99951e-06, 0.000243991, 0, 0
    700, 2.94025e-06, 0.000177206, 0, 0
    800, 2.73934e-06, 0.000132363, 0, 0
    900, 2.55421e-06, 9.38888e-05, 0, 0
    1000, 2.38612e-06, 0.000115881, 0, 0
    1100, 2.26411e-06, 0.00011762, 0, 0
    1200, 2.13388e-06, 0.000105178, 0, 0
    1300, 1.97255e-06, 9.08408e-05, 0, 0
    1400, 1.89607e-06, 8.23524e-05, 0, 0
    1500, 1.74378e-06, 6.15191e-05, 0, 0
    1600, 1.66362e-06, 7.41586e-05, 0, 0
    1700, 1.56912e-06, 6.69242e-05, 0, 0
    1800, 1.47032e-06, 6.15364e-05, 0, 0
    1900, 1.40451e-06, 6.14422e-05, 0, 0
    2000, 1.34043e-06, 5.70087e-05, 0, 0
    2100, 1.23699e-06, 4.29012e-05, 0, 0
    2200, 1.20058e-06, 5.05434e-05, 0, 0
    2300, 1.1424e-06, 4.75772e-05, 0, 0
    2400, 1.08949e-06, 4.47706e-05, 0, 0
    2500, 1.01925e-06, 4.25156e-05, 0, 0
    2600, 9.78397e-07, 4.26204e-05, 0, 0
    2700, 9.2032e-07, 3.90259e-05, 0, 0
    2800, 8.53543e-07, 3.09506e-05, 0, 0
    2900, 8.27375e-07, 3.49582e-05, 0, 0
    3000, 7.79953e-07, 2.76209e-05, 0, 0
    3100, 7.42762e-07, 3.14284e-05, 0, 0
    3200, 7.09153e-07, 2.92355e-05, 0, 0
    3300, 6.71096e-07, 2.8698e-05, 0, 0
    3400, 6.32315e-07, 2.66598e-05, 0, 0
    3500, 6.01914e-07, 2.47951e-05, 0, 0
    3600, 5.71219e-07, 2.42377e-05, 0, 0
    3700, 5.39255e-07, 2.27291e-05, 0, 0
    3800, 5.17282e-07, 2.07023e-05, 0, 0
    3900, 4.81672e-07, 2.02441e-05, 0, 0
    4000, 4.58474e-07, 1.95149e-05, 0, 0
    4100, 4.4199e-07, 1.84814e-05, 0, 0
    4200, 4.04435e-07, 1.55073e-05, 0, 0
    4300, 3.90069e-07, 1.70332e-05, 0, 0
    4400, 3.70909e-07, 1.56827e-05, 0, 0
    4500, 3.51488e-07, 1.35461e-05, 0, 0
    4600, 3.26801e-07, 1.25075e-05, 0, 0
    4700, 3.15965e-07, 1.36282e-05, 0, 0
    4800, 3.00556e-07, 1.28479e-05, 0, 0
    4900, 2.86089e-07, 1.18707e-05, 0, 0
    5000, 2.71893e-07, 1.10803e-05, 0, 0
    5100, 2.57228e-07, 1.08604e-05, 0, 0
    5200, 2.45083e-07, 1.02525e-05, 0, 0
    5300, 2.3273e-07, 9.7371e-06, 0, 0
    5400, 2.20919e-07, 9.24975e-06, 0, 0
    5500, 2.08299e-07, 8.66011e-06, 0, 0
    5600, 1.98392e-07, 8.16106e-06, 0, 0
    5700, 1.86595e-07, 8.20304e-06, 0, 0
    5800, 1.78123e-07, 7.40508e-06, 0, 0
    5900, 1.65892e-07, 7.07004e-06, 0, 0
    6000, 1.57798e-07, 6.89961e-06, 0, 0
    6100, 1.48435e-07, 6.21395e-06, 0, 0
    6200, 1.41697e-07, 6.25841e-06, 0, 0
    6300, 1.34936e-07, 6.04237e-06, 0, 0
    6400, 1.28022e-07, 5.66414e-06, 0, 0
    6500, 1.22185e-07, 5.34581e-06, 0, 0
    6600, 1.15212e-07, 5.16141e-06, 0, 0
    6700, 1.0951e-07, 4.9085e-06, 0, 0
    6800, 1.03921e-07, 4.67184e-06, 0, 0
    6900, 9.8619e-08, 4.44726e-06, 0, 0
    7000, 9.35973e-08, 4.23416e-06, 0, 0
    7100, 8.88397e-08, 4.03178e-06, 0, 0
    7200, 8.43462e-08, 3.83951e-06, 0, 0
    7300, 8.00864e-08, 3.65679e-06, 0, 0
    7400, 7.60475e-08, 3.48613e-06, 0, 0
    7500, 7.22204e-08, 3.32452e-06, 0, 0
    7600, 6.85909e-08, 3.17066e-06, 0, 0
    7700, 6.51487e-08, 3.02415e-06, 0, 0
    7800, 6.18831e-08, 2.88461e-06, 0, 0
    7900, 5.87833e-08, 2.75169e-06, 0, 0
    8000, 5.58264e-08, 2.62525e-06, 0, 0
    8100, 5.30564e-08, 2.51638e-06, 0, 0
    8200, 5.04102e-08, 2.38692e-06, 0, 0
    8300, 4.79343e-08, 2.28103e-06, 0, 0
    8400, 4.55146e-08, 2.18392e-06, 0, 0
    8500, 4.32483e-08, 2.08366e-06, 0, 0
    8600, 4.10984e-08, 1.97794e-06, 0, 0
    8700, 3.90579e-08, 1.8874e-06, 0, 0
    8800, 3.71198e-08, 1.80997e-06, 0, 0
    8900, 3.52805e-08, 1.72667e-06, 0, 0
    9000, 3.35601e-08, 1.64158e-06, 0, 0
    9100, 3.19017e-08, 1.56619e-06, 0, 0
    9200, 3.02991e-08, 1.49319e-06, 0, 0
    9300, 2.8799e-08, 1.43142e-06, 0, 0
    9400, 2.73738e-08, 1.36607e-06, 0, 0
    9500, 2.60209e-08, 1.30372e-06, 0, 0
    9600, 2.47363e-08, 1.24427e-06, 0, 0
    9700, 2.35165e-08, 1.18757e-06, 0, 0
    9800, 2.23584e-08, 1.13426e-06, 0, 0
    9900, 2.12587e-08, 1.08347e-06, 0, 0
    10000, 2.02139e-08, 1.03497e-06, 0, 0
    10100, 1.92214e-08, 9.88631e-07, 0, 0
    10200, 1.82791e-08, 9.44372e-07, 0, 0
    10300, 1.73841e-08, 9.02094e-07, 0, 0
    10400, 1.65337e-08, 8.61706e-07, 0, 0
    10500, 1.57398e-08, 8.23727e-07, 0, 0
    10600, 1.49604e-08, 7.85708e-07, 0, 0
    10700, 1.42403e-08, 7.51369e-07, 0, 0
    10800, 1.35433e-08, 7.1706e-07, 0, 0
    10900, 1.28647e-08, 6.80728e-07, 0, 0
    11000, 1.22623e-08, 6.5387e-07, 0, 0
    11100, 1.16419e-08, 6.24399e-07, 0, 0
    11200, 1.10976e-08, 5.97326e-07, 0, 0
    11300, 1.05575e-08, 5.69425e-07, 0, 0
    11400, 1.00402e-08, 5.43794e-07, 0, 0
    The solver residual has converged
    11409, 9.99501e-09, 5.41553e-07, 0, 0

Max sigmaEq (von Mises stress) = 405974
ExecutionTime = 68.6 s  ClockTime = 69 s

Jacobian determinant max. 1.0039 min. 0.99126

Time = 7

Evolving solid solver
Solving the total Lagrangian form of the momentum equation for DD
    Corr, res, relRes, matRes, iters
    100, 9.22314e-05, 0.0216272, 0, 0
    200, 5.61369e-05, 0.00843188, 0, 0
    300, 1.84939e-05, 0.00432446, 0, 0
    400, 5.13956e-06, 0.00146628, 0, 0
    500, 2.70471e-06, 0.000457692, 0, 0
    600, 2.25474e-06, 0.000266853, 0, 0
    700, 2.10873e-06, 9.72404e-05, 0, 0
    800, 2.03484e-06, 0.00010124, 0, 0
    900, 1.9323e-06, 9.31138e-05, 0, 0
    1000, 1.83195e-06, 8.67376e-05, 0, 0
    1100, 1.73552e-06, 8.12376e-05, 0, 0
    1200, 1.64414e-06, 7.62992e-05, 0, 0
    1300, 1.55791e-06, 7.17892e-05, 0, 0
    1400, 1.47499e-06, 6.78717e-05, 0, 0
    1500, 1.39909e-06, 6.38382e-05, 0, 0
    1600, 1.32638e-06, 6.02475e-05, 0, 0
    1700, 1.25664e-06, 5.69733e-05, 0, 0
    1800, 1.19112e-06, 5.39656e-05, 0, 0
    1900, 1.12713e-06, 5.06009e-05, 0, 0
    2000, 1.07077e-06, 4.84603e-05, 0, 0
    2100, 1.01562e-06, 4.60151e-05, 0, 0
    2200, 9.62985e-07, 4.36294e-05, 0, 0
    2300, 9.13207e-07, 4.13612e-05, 0, 0
    2400, 8.65994e-07, 3.92038e-05, 0, 0
    2500, 8.05695e-07, 3.66587e-05, 0, 0
    2600, 7.61424e-07, 3.47229e-05, 0, 0
    2700, 7.20305e-07, 3.28748e-05, 0, 0
    2800, 6.81719e-07, 3.11185e-05, 0, 0
    2900, 6.44963e-07, 2.94631e-05, 0, 0
    3000, 6.20417e-07, 3.07045e-05, 0, 0
    3100, 5.84279e-07, 2.80946e-05, 0, 0
    3200, 5.58806e-07, 2.74365e-05, 0, 0
    3300, 5.25696e-07, 2.48264e-05, 0, 0
    3400, 5.02123e-07, 2.45827e-05, 0, 0
    3500, 4.72639e-07, 2.26947e-05, 0, 0
    3600, 4.50121e-07, 2.20058e-05, 0, 0
    3700, 4.23385e-07, 2.0553e-05, 0, 0
    3800, 4.03763e-07, 2.00312e-05, 0, 0
    3900, 3.77609e-07, 1.86141e-05, 0, 0
    4000, 3.62826e-07, 1.79177e-05, 0, 0
    4100, 3.41628e-07, 1.67682e-05, 0, 0
    4200, 3.20022e-07, 1.52493e-05, 0, 0
    4300, 3.08168e-07, 1.49207e-05, 0, 0
    4400, 2.8859e-07, 1.40496e-05, 0, 0
    4500, 2.7778e-07, 1.35464e-05, 0, 0
    4600, 2.61075e-07, 1.29058e-05, 0, 0
    4700, 2.50152e-07, 1.1606e-05, 0, 0
    4800, 2.30974e-07, 1.09153e-05, 0, 0
    4900, 2.2169e-07, 1.09963e-05, 0, 0
    5000, 2.08982e-07, 1.02591e-05, 0, 0
    5100, 2.01411e-07, 9.86786e-06, 0, 0
    5200, 1.90135e-07, 9.0821e-06, 0, 0
    5300, 1.77021e-07, 8.70906e-06, 0, 0
    5400, 1.71733e-07, 8.36574e-06, 0, 0
    5500, 1.62178e-07, 7.84015e-06, 0, 0
    5600, 1.53623e-07, 7.49324e-06, 0, 0
    5700, 1.47793e-07, 6.86942e-06, 0, 0
    5800, 1.40346e-07, 6.54715e-06, 0, 0
    5900, 1.33213e-07, 6.21156e-06, 0, 0
    6000, 1.26416e-07, 5.86248e-06, 0, 0
    6100, 1.19981e-07, 5.60292e-06, 0, 0
    6200, 1.13843e-07, 5.32731e-06, 0, 0
    6300, 1.08012e-07, 5.03189e-06, 0, 0
    6400, 1.02499e-07, 4.81746e-06, 0, 0
    6500, 9.72187e-08, 4.55398e-06, 0, 0
    6600, 9.2234e-08, 4.33309e-06, 0, 0
    6700, 8.75036e-08, 4.12314e-06, 0, 0
    6800, 8.24863e-08, 4.08585e-06, 0, 0
    6900, 7.74136e-08, 3.94375e-06, 0, 0
    7000, 7.21854e-08, 3.76127e-06, 0, 0
    7100, 6.9675e-08, 3.58624e-06, 0, 0
    7200, 6.66117e-08, 3.24525e-06, 0, 0
    7300, 6.23798e-08, 3.02685e-06, 0, 0
    7400, 6.01699e-08, 2.98862e-06, 0, 0
    7500, 5.72544e-08, 2.83155e-06, 0, 0
    7600, 5.43783e-08, 2.69793e-06, 0, 0
    7700, 5.16305e-08, 2.57041e-06, 0, 0
    7800, 4.90136e-08, 2.44923e-06, 0, 0
    7900, 4.6527e-08, 2.33373e-06, 0, 0
    8000, 4.41671e-08, 2.2242e-06, 0, 0
    8100, 4.19268e-08, 2.12002e-06, 0, 0
    8200, 3.98023e-08, 2.02071e-06, 0, 0
    8300, 3.77846e-08, 1.92638e-06, 0, 0
    8400, 3.58693e-08, 1.83661e-06, 0, 0
    8500, 3.40513e-08, 1.75118e-06, 0, 0
    8600, 3.2071e-08, 1.67316e-06, 0, 0
    8700, 3.04489e-08, 1.58926e-06, 0, 0
    8800, 2.86041e-08, 1.507e-06, 0, 0
    8900, 2.71746e-08, 1.44259e-06, 0, 0
    9000, 2.57709e-08, 1.37237e-06, 0, 0
    9100, 2.47011e-08, 1.3206e-06, 0, 0
    9200, 2.32393e-08, 1.25084e-06, 0, 0
    9300, 2.22019e-08, 1.20023e-06, 0, 0
    9400, 2.0917e-08, 1.13757e-06, 0, 0
    9500, 1.98845e-08, 1.09035e-06, 0, 0
    9600, 1.89434e-08, 1.04542e-06, 0, 0
    9700, 1.80103e-08, 9.8702e-07, 0, 0
    9800, 1.69005e-08, 9.37833e-07, 0, 0
    9900, 1.6159e-08, 9.01794e-07, 0, 0
    10000, 1.54715e-08, 8.56009e-07, 0, 0
    10100, 1.45515e-08, 8.289e-07, 0, 0
    10200, 1.38936e-08, 7.932e-07, 0, 0
    10300, 1.32705e-08, 7.52485e-07, 0, 0
    10400, 1.25108e-08, 7.17903e-07, 0, 0
    10500, 1.18842e-08, 6.85978e-07, 0, 0
    10600, 1.12929e-08, 6.51978e-07, 0, 0
    10700, 1.07316e-08, 6.23873e-07, 0, 0
    10800, 1.02145e-08, 5.99164e-07, 0, 0
    The solver residual has converged
    10845, 9.98074e-09, 5.90738e-07, 0, 0

Max sigmaEq (von Mises stress) = 473063
ExecutionTime = 78.73 s  ClockTime = 79 s

Jacobian determinant max. 1.00965 min. 0.990459

Time = 8

Evolving solid solver
Solving the total Lagrangian form of the momentum equation for DD
    Corr, res, relRes, matRes, iters
    100, 0.000107742, 0.0163137, 0, 0
    200, 4.00036e-05, 0.0116885, 0, 0
    300, 2.53724e-05, 0.00295868, 0, 0
    400, 7.11433e-06, 0.00117176, 0, 0
    500, 3.61213e-06, 0.000217212, 0, 0
    600, 3.36287e-06, 0.000147385, 0, 0
    700, 2.98907e-06, 0.000128206, 0, 0
    800, 2.80449e-06, 0.000111535, 0, 0
    900, 2.6439e-06, 0.000100266, 0, 0
    1000, 2.49677e-06, 9.13349e-05, 0, 0
    1100, 2.35946e-06, 8.40706e-05, 0, 0
    1200, 2.23183e-06, 7.79215e-05, 0, 0
    1300, 2.10913e-06, 7.24656e-05, 0, 0
    1400, 1.9912e-06, 6.81032e-05, 0, 0
    1500, 1.88246e-06, 6.40166e-05, 0, 0
    1600, 1.77922e-06, 6.02753e-05, 0, 0
    1700, 1.68163e-06, 5.67792e-05, 0, 0
    1800, 1.58937e-06, 5.35035e-05, 0, 0
    1900, 1.50209e-06, 5.04267e-05, 0, 0
    2000, 1.41954e-06, 4.75329e-05, 0, 0
    2100, 1.34153e-06, 4.48093e-05, 0, 0
    2200, 1.26783e-06, 4.22448e-05, 0, 0
    2300, 1.1922e-06, 3.98146e-05, 0, 0
    2400, 1.12655e-06, 3.76422e-05, 0, 0
    2500, 1.06481e-06, 3.56787e-05, 0, 0
    2600, 1.0065e-06, 3.38143e-05, 0, 0
    2700, 9.52617e-07, 3.20965e-05, 0, 0
    2800, 8.99873e-07, 3.04041e-05, 0, 0
    2900, 8.5085e-07, 2.88e-05, 0, 0
    3000, 8.04864e-07, 2.72752e-05, 0, 0
    3100, 7.6166e-07, 2.58495e-05, 0, 0
    3200, 7.20619e-07, 2.44798e-05, 0, 0
    3300, 6.81486e-07, 2.31858e-05, 0, 0
    3400, 6.44808e-07, 2.19564e-05, 0, 0
    3500, 6.10175e-07, 2.08443e-05, 0, 0
    3600, 5.7744e-07, 1.97945e-05, 0, 0
    3700, 5.46484e-07, 1.87963e-05, 0, 0
    3800, 5.17209e-07, 1.78476e-05, 0, 0
    3900, 4.89523e-07, 1.69461e-05, 0, 0
    4000, 4.63367e-07, 1.60915e-05, 0, 0
    4100, 4.38594e-07, 1.52783e-05, 0, 0
    4200, 4.15195e-07, 1.45056e-05, 0, 0
    4300, 3.93026e-07, 1.37657e-05, 0, 0
    4400, 3.72469e-07, 1.30855e-05, 0, 0
    4500, 3.52607e-07, 1.24223e-05, 0, 0
    4600, 3.33819e-07, 1.17934e-05, 0, 0
    4700, 3.16025e-07, 1.12044e-05, 0, 0
    4800, 2.99229e-07, 1.0657e-05, 0, 0
    4900, 2.83156e-07, 1.01396e-05, 0, 0
    5000, 2.68151e-07, 9.64267e-06, 0, 0
    5100, 2.53906e-07, 9.17219e-06, 0, 0
    5200, 2.4043e-07, 8.72507e-06, 0, 0
    5300, 2.27679e-07, 8.29991e-06, 0, 0
    5400, 2.15615e-07, 7.89567e-06, 0, 0
    5500, 2.04204e-07, 7.51132e-06, 0, 0
    5600, 1.93408e-07, 7.14659e-06, 0, 0
    5700, 1.83221e-07, 6.79917e-06, 0, 0
    5800, 1.73583e-07, 6.46884e-06, 0, 0
    5900, 1.64459e-07, 6.15478e-06, 0, 0
    6000, 1.55821e-07, 5.85618e-06, 0, 0
    6100, 1.47641e-07, 5.57228e-06, 0, 0
    6200, 1.39827e-07, 5.31055e-06, 0, 0
    6300, 1.32897e-07, 5.04164e-06, 0, 0
    6400, 1.25954e-07, 4.8037e-06, 0, 0
    6500, 1.19167e-07, 4.57326e-06, 0, 0
    6600, 1.13109e-07, 4.3725e-06, 0, 0
    6700, 1.07215e-07, 4.15408e-06, 0, 0
    6800, 1.01491e-07, 3.9563e-06, 0, 0
    6900, 9.63971e-08, 3.77145e-06, 0, 0
    7000, 9.12434e-08, 3.58969e-06, 0, 0
    7100, 8.66555e-08, 3.43611e-06, 0, 0
    7200, 8.21579e-08, 3.28358e-06, 0, 0
    7300, 7.79182e-08, 3.11118e-06, 0, 0
    7400, 7.38876e-08, 2.96605e-06, 0, 0
    7500, 7.00259e-08, 2.82519e-06, 0, 0
    7600, 6.64874e-08, 2.69814e-06, 0, 0
    7700, 6.30527e-08, 2.57905e-06, 0, 0
    7800, 5.98042e-08, 2.45835e-06, 0, 0
    7900, 5.67239e-08, 2.34367e-06, 0, 0
    8000, 5.38041e-08, 2.22824e-06, 0, 0
    8100, 5.10575e-08, 2.12873e-06, 0, 0
    8200, 4.84407e-08, 2.02293e-06, 0, 0
    8300, 4.59568e-08, 1.93227e-06, 0, 0
    8400, 4.35978e-08, 1.8422e-06, 0, 0
    8500, 4.13743e-08, 1.75155e-06, 0, 0
    8600, 3.92551e-08, 1.66674e-06, 0, 0
    8700, 3.72519e-08, 1.59149e-06, 0, 0
    8800, 3.53532e-08, 1.51729e-06, 0, 0
    8900, 3.35522e-08, 1.44617e-06, 0, 0
    9000, 3.18442e-08, 1.37859e-06, 0, 0
    9100, 3.02254e-08, 1.31375e-06, 0, 0
    9200, 2.86871e-08, 1.25247e-06, 0, 0
    9300, 2.72301e-08, 1.19394e-06, 0, 0
    9400, 2.58467e-08, 1.13825e-06, 0, 0
    9500, 2.45345e-08, 1.08515e-06, 0, 0
    9600, 2.32912e-08, 1.03498e-06, 0, 0
    9700, 2.21104e-08, 9.87251e-07, 0, 0
    9800, 2.09902e-08, 9.41712e-07, 0, 0
    9900, 1.99283e-08, 8.98188e-07, 0, 0
    10000, 1.89196e-08, 8.56754e-07, 0, 0
    10100, 1.79626e-08, 8.17222e-07, 0, 0
    10200, 1.70555e-08, 7.79439e-07, 0, 0
    10300, 1.61939e-08, 7.43473e-07, 0, 0
    10400, 1.53763e-08, 7.0916e-07, 0, 0
    10500, 1.46012e-08, 6.76366e-07, 0, 0
    10600, 1.38649e-08, 6.45151e-07, 0, 0
    10700, 1.31664e-08, 6.15372e-07, 0, 0
    10800, 1.25043e-08, 5.86911e-07, 0, 0
    10900, 1.18755e-08, 5.59803e-07, 0, 0
    11000, 1.12786e-08, 5.33946e-07, 0, 0
    11100, 1.07121e-08, 5.09283e-07, 0, 0
    11200, 1.01591e-08, 4.8329e-07, 0, 0
    The solver residual has converged
    11230, 9.99556e-09, 4.76865e-07, 0, 0

Max sigmaEq (von Mises stress) = 541645
ExecutionTime = 89.3 s  ClockTime = 89 s

Jacobian determinant max. 1.00973 min. 0.988885

Time = 9

Evolving solid solver
Solving the total Lagrangian form of the momentum equation for DD
    Corr, res, relRes, matRes, iters
    100, 0.000145203, 0.0274097, 0, 0
    200, 4.07518e-05, 0.00391131, 0, 0
    300, 8.42776e-06, 0.00102829, 0, 0
    400, 3.86912e-06, 0.00036501, 0, 0
    500, 2.97234e-06, 0.00027247, 0, 0
    600, 2.64417e-06, 0.000198447, 0, 0
    700, 2.47929e-06, 0.000184848, 0, 0
    800, 2.27456e-06, 0.000119034, 0, 0
    900, 2.10587e-06, 0.000128179, 0, 0
    1000, 1.94194e-06, 8.53686e-05, 0, 0
    1100, 1.82923e-06, 0.00010505, 0, 0
    1200, 1.71912e-06, 7.30454e-05, 0, 0
    1300, 1.64886e-06, 9.08022e-05, 0, 0
    1400, 1.56282e-06, 8.42306e-05, 0, 0
    1500, 1.47852e-06, 7.75288e-05, 0, 0
    1600, 1.39624e-06, 7.17772e-05, 0, 0
    1700, 1.32735e-06, 6.74631e-05, 0, 0
    1800, 1.25609e-06, 6.34169e-05, 0, 0
    1900, 1.19314e-06, 5.93689e-05, 0, 0
    2000, 1.13042e-06, 5.60726e-05, 0, 0
    2100, 1.07291e-06, 5.27237e-05, 0, 0
    2200, 1.01693e-06, 4.98099e-05, 0, 0
    2300, 9.62273e-07, 4.68815e-05, 0, 0
    2400, 9.10421e-07, 4.4147e-05, 0, 0
    2500, 8.6131e-07, 4.157e-05, 0, 0
    2600, 8.14603e-07, 3.91997e-05, 0, 0
    2700, 7.70779e-07, 3.69367e-05, 0, 0
    2800, 7.29162e-07, 3.49446e-05, 0, 0
    2900, 6.89897e-07, 3.30509e-05, 0, 0
    3000, 6.50535e-07, 3.17158e-05, 0, 0
    3100, 6.16001e-07, 2.9894e-05, 0, 0
    3200, 5.83633e-07, 2.83052e-05, 0, 0
    3300, 5.51999e-07, 2.67369e-05, 0, 0
    3400, 5.22483e-07, 2.52745e-05, 0, 0
    3500, 4.94534e-07, 2.38913e-05, 0, 0
    3600, 4.68079e-07, 2.25826e-05, 0, 0
    3700, 4.43044e-07, 2.13453e-05, 0, 0
    3800, 4.19218e-07, 2.00584e-05, 0, 0
    3900, 3.97026e-07, 1.89538e-05, 0, 0
    4000, 3.7589e-07, 1.79462e-05, 0, 0
    4100, 3.54315e-07, 1.72386e-05, 0, 0
    4200, 3.35512e-07, 1.63255e-05, 0, 0
    4300, 3.17696e-07, 1.54378e-05, 0, 0
    4400, 3.00793e-07, 1.46383e-05, 0, 0
    4500, 2.84812e-07, 1.38798e-05, 0, 0
    4600, 2.69692e-07, 1.31607e-05, 0, 0
    4700, 2.55385e-07, 1.24791e-05, 0, 0
    4800, 2.41845e-07, 1.18332e-05, 0, 0
    4900, 2.29033e-07, 1.1221e-05, 0, 0
    5000, 2.16887e-07, 1.06409e-05, 0, 0
    5100, 2.05454e-07, 1.00916e-05, 0, 0
    5200, 1.94598e-07, 9.57051e-06, 0, 0
    5300, 1.84325e-07, 9.07803e-06, 0, 0
    5400, 1.74636e-07, 8.60647e-06, 0, 0
    5500, 1.65763e-07, 8.19084e-06, 0, 0
    5600, 1.57363e-07, 7.73615e-06, 0, 0
    5700, 1.49066e-07, 7.35044e-06, 0, 0
    5800, 1.41198e-07, 6.98662e-06, 0, 0
    5900, 1.33759e-07, 6.64079e-06, 0, 0
    6000, 1.26719e-07, 6.31261e-06, 0, 0
    6100, 1.20056e-07, 6.00109e-06, 0, 0
    6200, 1.13748e-07, 5.70536e-06, 0, 0
    6300, 1.07776e-07, 5.42459e-06, 0, 0
    6400, 1.02123e-07, 5.158e-06, 0, 0
    6500, 9.67699e-08, 4.90484e-06, 0, 0
    6600, 9.17022e-08, 4.66441e-06, 0, 0
    6700, 8.69036e-08, 4.43606e-06, 0, 0
    6800, 8.23594e-08, 4.21915e-06, 0, 0
    6900, 7.80561e-08, 4.0131e-06, 0, 0
    7000, 7.39806e-08, 3.81734e-06, 0, 0
    7100, 7.01207e-08, 3.63134e-06, 0, 0
    7200, 6.64648e-08, 3.45461e-06, 0, 0
    7300, 6.30024e-08, 3.28667e-06, 0, 0
    7400, 5.97264e-08, 3.12706e-06, 0, 0
    7500, 5.66241e-08, 2.97701e-06, 0, 0
    7600, 5.36852e-08, 2.83659e-06, 0, 0
    7700, 5.09007e-08, 2.70285e-06, 0, 0
    7800, 4.82625e-08, 2.57547e-06, 0, 0
    7900, 4.57631e-08, 2.45415e-06, 0, 0
    8000, 4.3384e-08, 2.34235e-06, 0, 0
    8100, 4.11176e-08, 2.22814e-06, 0, 0
    8200, 3.90585e-08, 2.12126e-06, 0, 0
    8300, 3.70145e-08, 2.0213e-06, 0, 0
    8400, 3.51581e-08, 1.92551e-06, 0, 0
    8500, 3.33241e-08, 1.8333e-06, 0, 0
    8600, 3.16631e-08, 1.74686e-06, 0, 0
    8700, 3.00021e-08, 1.67212e-06, 0, 0
    8800, 2.84783e-08, 1.59297e-06, 0, 0
    8900, 2.70292e-08, 1.51891e-06, 0, 0
    9000, 2.5677e-08, 1.44738e-06, 0, 0
    9100, 2.43635e-08, 1.37921e-06, 0, 0
    9200, 2.31295e-08, 1.31316e-06, 0, 0
    9300, 2.19037e-08, 1.24432e-06, 0, 0
    9400, 2.07903e-08, 1.19466e-06, 0, 0
    9500, 1.9759e-08, 1.13376e-06, 0, 0
    9600, 1.87518e-08, 1.08036e-06, 0, 0
    9700, 1.77979e-08, 1.02961e-06, 0, 0
    9800, 1.6892e-08, 9.83218e-07, 0, 0
    9900, 1.60344e-08, 9.37212e-07, 0, 0
    10000, 1.52199e-08, 8.9316e-07, 0, 0
    10100, 1.44477e-08, 8.52528e-07, 0, 0
    10200, 1.37153e-08, 8.11949e-07, 0, 0
    10300, 1.30223e-08, 7.72069e-07, 0, 0
    10400, 1.23615e-08, 7.3898e-07, 0, 0
    10500, 1.17424e-08, 7.02842e-07, 0, 0
    10600, 1.11466e-08, 6.70558e-07, 0, 0
    10700, 1.05827e-08, 6.3979e-07, 0, 0
    10800, 1.00375e-08, 6.10217e-07, 0, 0
    The solver residual has converged
    10807, 9.9999e-09, 6.08142e-07, 0, 0

Max sigmaEq (von Mises stress) = 614663
ExecutionTime = 99.21 s  ClockTime = 99 s

Jacobian determinant max. 1.00446 min. 0.989234

Time = 10

Evolving solid solver
Solving the total Lagrangian form of the momentum equation for DD
    Corr, res, relRes, matRes, iters
    100, 0.000132927, 0.0160608, 0, 0
    200, 3.64492e-05, 0.00549605, 0, 0
    300, 1.41651e-05, 0.00162683, 0, 0
    400, 3.85858e-06, 0.000685786, 0, 0
    500, 2.3671e-06, 0.000341067, 0, 0
    600, 1.60292e-06, 0.000264924, 0, 0
    700, 1.45362e-06, 0.000225682, 0, 0
    800, 1.34599e-06, 0.000177958, 0, 0
    900, 1.26954e-06, 0.000151104, 0, 0
    1000, 1.17569e-06, 0.000129467, 0, 0
    1100, 1.09519e-06, 9.82382e-05, 0, 0
    1200, 1.04081e-06, 0.000121979, 0, 0
    1300, 9.62579e-07, 8.82225e-05, 0, 0
    1400, 9.05063e-07, 7.11561e-05, 0, 0
    1500, 8.59038e-07, 7.97839e-05, 0, 0
    1600, 7.93686e-07, 6.30804e-05, 0, 0
    1700, 7.54165e-07, 5.28913e-05, 0, 0
    1800, 7.02125e-07, 5.48686e-05, 0, 0
    1900, 6.60418e-07, 4.9083e-05, 0, 0
    2000, 6.21666e-07, 4.67634e-05, 0, 0
    2100, 5.86172e-07, 4.04925e-05, 0, 0
    2200, 5.54042e-07, 4.71254e-05, 0, 0
    2300, 5.23124e-07, 4.47345e-05, 0, 0
    2400, 4.88454e-07, 3.47101e-05, 0, 0
    2500, 4.58811e-07, 3.10919e-05, 0, 0
    2600, 4.32287e-07, 2.89937e-05, 0, 0
    2700, 4.07208e-07, 2.75368e-05, 0, 0
    2800, 3.83763e-07, 2.61455e-05, 0, 0
    2900, 3.6176e-07, 2.48154e-05, 0, 0
    3000, 3.40643e-07, 2.35869e-05, 0, 0
    3100, 3.21152e-07, 2.24468e-05, 0, 0
    3200, 3.03024e-07, 2.1276e-05, 0, 0
    3300, 2.85913e-07, 2.01553e-05, 0, 0
    3400, 2.69805e-07, 1.90917e-05, 0, 0
    3500, 2.54608e-07, 1.80823e-05, 0, 0
    3600, 2.40277e-07, 1.71248e-05, 0, 0
    3700, 2.26767e-07, 1.62166e-05, 0, 0
    3800, 2.13867e-07, 1.53738e-05, 0, 0
    3900, 2.01968e-07, 1.45739e-05, 0, 0
    4000, 1.90444e-07, 1.38009e-05, 0, 0
    4100, 1.79934e-07, 1.3061e-05, 0, 0
    4200, 1.69848e-07, 1.23707e-05, 0, 0
    4300, 1.60268e-07, 1.17064e-05, 0, 0
    4400, 1.51314e-07, 1.10639e-05, 0, 0
    4500, 1.42888e-07, 1.04745e-05, 0, 0
    4600, 1.35017e-07, 9.91443e-06, 0, 0
    4700, 1.27499e-07, 9.37649e-06, 0, 0
    4800, 1.2037e-07, 8.86442e-06, 0, 0
    4900, 1.13764e-07, 8.38409e-06, 0, 0
    5000, 1.07353e-07, 8.01991e-06, 0, 0
    5100, 1.01674e-07, 7.56355e-06, 0, 0
    5200, 9.60429e-08, 7.15417e-06, 0, 0
    5300, 9.07627e-08, 6.77179e-06, 0, 0
    5400, 8.56874e-08, 6.41576e-06, 0, 0
    5500, 8.07406e-08, 6.11267e-06, 0, 0
    5600, 7.6543e-08, 5.75637e-06, 0, 0
    5700, 7.23123e-08, 5.44333e-06, 0, 0
    5800, 6.8318e-08, 5.16008e-06, 0, 0
    5900, 6.45531e-08, 4.88938e-06, 0, 0
    6000, 6.08332e-08, 4.65107e-06, 0, 0
    6100, 5.69813e-08, 4.36055e-06, 0, 0
    6200, 5.38051e-08, 4.13459e-06, 0, 0
    6300, 5.08036e-08, 3.9173e-06, 0, 0
    6400, 4.79488e-08, 3.71494e-06, 0, 0
    6500, 4.53001e-08, 3.5147e-06, 0, 0
    6600, 4.27582e-08, 3.3339e-06, 0, 0
    6700, 4.0382e-08, 3.15788e-06, 0, 0
    6800, 3.81346e-08, 2.99151e-06, 0, 0
    6900, 3.60151e-08, 2.8342e-06, 0, 0
    7000, 3.40115e-08, 2.68476e-06, 0, 0
    7100, 3.24879e-08, 2.55373e-06, 0, 0
    7200, 3.08358e-08, 2.41257e-06, 0, 0
    7300, 2.87711e-08, 2.28451e-06, 0, 0
    7400, 2.74197e-08, 2.17171e-06, 0, 0
    7500, 2.59855e-08, 2.05094e-06, 0, 0
    7600, 2.42405e-08, 1.94205e-06, 0, 0
    7700, 2.31101e-08, 1.84583e-06, 0, 0
    7800, 2.19093e-08, 1.74286e-06, 0, 0
    7900, 2.04378e-08, 1.65036e-06, 0, 0
    8000, 1.94859e-08, 1.56833e-06, 0, 0
    8100, 1.84754e-08, 1.48061e-06, 0, 0
    8200, 1.72334e-08, 1.40207e-06, 0, 0
    8300, 1.64309e-08, 1.33216e-06, 0, 0
    8400, 1.55721e-08, 1.26451e-06, 0, 0
    8500, 1.47174e-08, 1.19737e-06, 0, 0
    8600, 1.3906e-08, 1.13404e-06, 0, 0
    8700, 1.3132e-08, 1.07189e-06, 0, 0
    8800, 1.23796e-08, 1.01116e-06, 0, 0
    8900, 1.1726e-08, 9.63482e-07, 0, 0
    9000, 1.10034e-08, 9.03734e-07, 0, 0
    9100, 1.04957e-08, 8.65552e-07, 0, 0
    The solver residual has converged
    9131, 9.99478e-09, 8.31224e-07, 0, 0

Max sigmaEq (von Mises stress) = 693075
ExecutionTime = 107.48 s  ClockTime = 108 s

Jacobian determinant max. 1.01309 min. 0.988694

Time = 11

Evolving solid solver
Solving the total Lagrangian form of the momentum equation for DD
    Corr, res, relRes, matRes, iters
    100, 0.000185966, 0.0144926, 0, 0
    200, 6.6446e-05, 0.00941534, 0, 0
    300, 2.26666e-05, 0.00420507, 0, 0
    400, 5.4696e-06, 0.00035692, 0, 0
    500, 3.87187e-06, 0.000265561, 0, 0
    600, 3.57754e-06, 0.000201066, 0, 0
    700, 3.26096e-06, 0.000151565, 0, 0
    800, 3.02546e-06, 0.000156548, 0, 0
    900, 2.88384e-06, 0.000143987, 0, 0
    1000, 2.66793e-06, 0.000104232, 0, 0
    1100, 2.52388e-06, 0.000110737, 0, 0
    1200, 2.38048e-06, 9.70542e-05, 0, 0
    1300, 2.27521e-06, 0.000100586, 0, 0
    1400, 2.14598e-06, 8.80827e-05, 0, 0
    1500, 2.02243e-06, 7.92764e-05, 0, 0
    1600, 1.90225e-06, 7.19078e-05, 0, 0
    1700, 1.78957e-06, 6.87642e-05, 0, 0
    1800, 1.711e-06, 6.26778e-05, 0, 0
    1900, 1.60629e-06, 5.87657e-05, 0, 0
    2000, 1.50619e-06, 5.44032e-05, 0, 0
    2100, 1.4305e-06, 4.99148e-05, 0, 0
    2200, 1.35179e-06, 4.70931e-05, 0, 0
    2300, 1.27753e-06, 4.43879e-05, 0, 0
    2400, 1.20776e-06, 4.18677e-05, 0, 0
    2500, 1.14167e-06, 3.94792e-05, 0, 0
    2600, 1.07902e-06, 3.74269e-05, 0, 0
    2700, 1.02029e-06, 3.54845e-05, 0, 0
    2800, 9.64364e-07, 3.36267e-05, 0, 0
    2900, 9.11323e-07, 3.17728e-05, 0, 0
    3000, 8.65887e-07, 3.01664e-05, 0, 0
    3100, 8.18324e-07, 2.85808e-05, 0, 0
    3200, 7.73041e-07, 2.6314e-05, 0, 0
    3300, 7.26226e-07, 2.5531e-05, 0, 0
    3400, 6.90495e-07, 2.42606e-05, 0, 0
    3500, 6.52582e-07, 2.23633e-05, 0, 0
    3600, 6.14124e-07, 2.16836e-05, 0, 0
    3700, 5.83266e-07, 2.06191e-05, 0, 0
    3800, 5.51199e-07, 1.91068e-05, 0, 0
    3900, 5.19684e-07, 1.85536e-05, 0, 0
    4000, 4.93564e-07, 1.76915e-05, 0, 0
    4100, 4.66225e-07, 1.64343e-05, 0, 0
    4200, 4.40157e-07, 1.58779e-05, 0, 0
    4300, 4.17246e-07, 1.51482e-05, 0, 0
    4400, 3.94276e-07, 1.41952e-05, 0, 0
    4500, 3.72413e-07, 1.35953e-05, 0, 0
    4600, 3.52946e-07, 1.29728e-05, 0, 0
    4700, 3.33551e-07, 1.23116e-05, 0, 0
    4800, 3.16135e-07, 1.16074e-05, 0, 0
    4900, 2.98538e-07, 1.11114e-05, 0, 0
    5000, 2.83323e-07, 1.0539e-05, 0, 0
    5100, 2.67966e-07, 1.00138e-05, 0, 0
    5200, 2.53344e-07, 9.49405e-06, 0, 0
    5300, 2.39625e-07, 9.03079e-06, 0, 0
    5400, 2.26717e-07, 8.58215e-06, 0, 0
    5500, 2.14533e-07, 8.15639e-06, 0, 0
    5600, 2.02972e-07, 7.76404e-06, 0, 0
    5700, 1.92059e-07, 7.38182e-06, 0, 0
    5800, 1.81758e-07, 7.02661e-06, 0, 0
    5900, 1.71871e-07, 6.70946e-06, 0, 0
    6000, 1.62826e-07, 6.358e-06, 0, 0
    6100, 1.5399e-07, 6.07452e-06, 0, 0
    6200, 1.45779e-07, 5.76113e-06, 0, 0
    6300, 1.38016e-07, 5.48113e-06, 0, 0
    6400, 1.30804e-07, 5.20332e-06, 0, 0
    6500, 1.23734e-07, 4.95962e-06, 0, 0
    6600, 1.1716e-07, 4.71811e-06, 0, 0
    6700, 1.10942e-07, 4.48862e-06, 0, 0
    6800, 1.05061e-07, 4.27024e-06, 0, 0
    6900, 9.9494e-08, 4.06246e-06, 0, 0
    7000, 9.42257e-08, 3.86476e-06, 0, 0
    7100, 8.92394e-08, 3.67668e-06, 0, 0
    7200, 8.45198e-08, 3.49775e-06, 0, 0
    7300, 8.00542e-08, 3.32754e-06, 0, 0
    7400, 7.58274e-08, 3.16561e-06, 0, 0
    7500, 7.18261e-08, 3.01246e-06, 0, 0
    7600, 6.8038e-08, 2.86799e-06, 0, 0
    7700, 6.44518e-08, 2.73039e-06, 0, 0
    7800, 6.10574e-08, 2.59933e-06, 0, 0
    7900, 5.78441e-08, 2.47452e-06, 0, 0
    8000, 5.48017e-08, 2.35565e-06, 0, 0
    8100, 5.19236e-08, 2.24246e-06, 0, 0
    8200, 4.9229e-08, 2.13178e-06, 0, 0
    8300, 4.66239e-08, 2.03172e-06, 0, 0
    8400, 4.41823e-08, 1.93433e-06, 0, 0
    8500, 4.19179e-08, 1.83748e-06, 0, 0
    8600, 3.97195e-08, 1.74989e-06, 0, 0
    8700, 3.76158e-08, 1.66797e-06, 0, 0
    8800, 3.56522e-08, 1.58766e-06, 0, 0
    8900, 3.38198e-08, 1.50892e-06, 0, 0
    9000, 3.20317e-08, 1.44951e-06, 0, 0
    9100, 3.03648e-08, 1.37949e-06, 0, 0
    9200, 2.88104e-08, 1.30026e-06, 0, 0
    9300, 2.73029e-08, 1.23822e-06, 0, 0
    9400, 2.58719e-08, 1.18896e-06, 0, 0
    9500, 2.45386e-08, 1.13057e-06, 0, 0
    9600, 2.32618e-08, 1.07611e-06, 0, 0
    9700, 2.20654e-08, 1.01472e-06, 0, 0
    9800, 2.09288e-08, 9.64918e-07, 0, 0
    9900, 1.98428e-08, 9.18116e-07, 0, 0
    10000, 1.88057e-08, 8.74415e-07, 0, 0
    10100, 1.78411e-08, 8.31285e-07, 0, 0
    10200, 1.69162e-08, 7.91081e-07, 0, 0
    10300, 1.6028e-08, 7.60391e-07, 0, 0
    10400, 1.52103e-08, 7.16346e-07, 0, 0
    10500, 1.44273e-08, 6.81475e-07, 0, 0
    10600, 1.36829e-08, 6.48499e-07, 0, 0
    10700, 1.29815e-08, 6.2293e-07, 0, 0
    10800, 1.23087e-08, 5.92609e-07, 0, 0
    10900, 1.16735e-08, 5.63746e-07, 0, 0
    11000, 1.10538e-08, 5.32659e-07, 0, 0
    11100, 1.04821e-08, 5.07224e-07, 0, 0
    The solver residual has converged
    11190, 9.99609e-09, 4.85632e-07, 0, 0

Max sigmaEq (von Mises stress) = 776723
ExecutionTime = 117.59 s  ClockTime = 118 s

Jacobian determinant max. 1.00857 min. 0.987657

Time = 12

Evolving solid solver
Solving the total Lagrangian form of the momentum equation for DD
    Corr, res, relRes, matRes, iters
    100, 4.98904e-05, 0.00984688, 0, 0
    200, 4.02102e-05, 0.00989188, 0, 0
    300, 6.60717e-06, 0.00191119, 0, 0
    400, 2.41835e-06, 0.000525983, 0, 0
    500, 1.58676e-06, 0.000154945, 0, 0
    600, 1.39806e-06, 0.000132998, 0, 0
    700, 1.27406e-06, 0.000122002, 0, 0
    800, 1.18547e-06, 0.00010475, 0, 0
    900, 1.10118e-06, 0.000111759, 0, 0
    1000, 1.04199e-06, 8.50435e-05, 0, 0
    1100, 9.67952e-07, 7.40381e-05, 0, 0
    1200, 9.13748e-07, 7.35239e-05, 0, 0
    1300, 8.66363e-07, 9.1942e-05, 0, 0
    1400, 8.14472e-07, 6.67065e-05, 0, 0
    1500, 7.64921e-07, 6.18409e-05, 0, 0
    1600, 7.21846e-07, 5.79721e-05, 0, 0
    1700, 6.81096e-07, 5.38613e-05, 0, 0
    1800, 6.42872e-07, 5.04793e-05, 0, 0
    1900, 6.06891e-07, 4.74474e-05, 0, 0
    2000, 5.73092e-07, 4.4524e-05, 0, 0
    2100, 5.41351e-07, 4.1778e-05, 0, 0
    2200, 5.11454e-07, 3.92082e-05, 0, 0
    2300, 4.8329e-07, 3.68044e-05, 0, 0
    2400, 4.56495e-07, 3.45504e-05, 0, 0
    2500, 4.31489e-07, 3.2412e-05, 0, 0
    2600, 4.07906e-07, 3.04511e-05, 0, 0
    2700, 3.85605e-07, 2.85982e-05, 0, 0
    2800, 3.64803e-07, 2.68425e-05, 0, 0
    2900, 3.44847e-07, 2.53007e-05, 0, 0
    3000, 3.26281e-07, 2.37926e-05, 0, 0
    3100, 3.08349e-07, 2.23676e-05, 0, 0
    3200, 2.91573e-07, 2.10197e-05, 0, 0
    3300, 2.76194e-07, 1.98469e-05, 0, 0
    3400, 2.61242e-07, 1.86552e-05, 0, 0
    3500, 2.46752e-07, 1.77329e-05, 0, 0
    3600, 2.33745e-07, 1.67821e-05, 0, 0
    3700, 2.19948e-07, 1.59689e-05, 0, 0
    3800, 2.09245e-07, 1.53775e-05, 0, 0
    3900, 1.9655e-07, 1.44494e-05, 0, 0
    4000, 1.87047e-07, 1.38251e-05, 0, 0
    4100, 1.77084e-07, 1.33067e-05, 0, 0
    4200, 1.66142e-07, 1.24887e-05, 0, 0
    4300, 1.5808e-07, 1.19717e-05, 0, 0
    4400, 1.49793e-07, 1.15182e-05, 0, 0
    4500, 1.40329e-07, 1.07977e-05, 0, 0
    4600, 1.33551e-07, 1.03549e-05, 0, 0
    4700, 1.26641e-07, 9.95069e-06, 0, 0
    4800, 1.18469e-07, 9.32786e-06, 0, 0
    4900, 1.13121e-07, 8.97136e-06, 0, 0
    5000, 1.06916e-07, 8.50382e-06, 0, 0
    5100, 1.01058e-07, 8.0947e-06, 0, 0
    5200, 9.55228e-08, 7.70617e-06, 0, 0
    5300, 9.02903e-08, 7.33518e-06, 0, 0
    5400, 8.53444e-08, 6.98094e-06, 0, 0
    5500, 8.06695e-08, 6.64278e-06, 0, 0
    5600, 7.62507e-08, 6.32009e-06, 0, 0
    5700, 7.20747e-08, 6.01224e-06, 0, 0
    5800, 6.81296e-08, 5.71864e-06, 0, 0
    5900, 6.44024e-08, 5.43869e-06, 0, 0
    6000, 6.08877e-08, 5.17182e-06, 0, 0
    6100, 5.75888e-08, 4.91748e-06, 0, 0
    6200, 5.44687e-08, 4.67512e-06, 0, 0
    6300, 5.1518e-08, 4.44422e-06, 0, 0
    6400, 4.87287e-08, 4.22429e-06, 0, 0
    6500, 4.6091e-08, 4.01482e-06, 0, 0
    6600, 4.3596e-08, 3.81537e-06, 0, 0
    6700, 4.12361e-08, 3.62548e-06, 0, 0
    6800, 3.9004e-08, 3.44472e-06, 0, 0
    6900, 3.68926e-08, 3.27268e-06, 0, 0
    7000, 3.48955e-08, 3.10895e-06, 0, 0
    7100, 3.30063e-08, 2.95316e-06, 0, 0
    7200, 3.12194e-08, 2.80494e-06, 0, 0
    7300, 2.95291e-08, 2.66394e-06, 0, 0
    7400, 2.79305e-08, 2.52982e-06, 0, 0
    7500, 2.64192e-08, 2.40227e-06, 0, 0
    7600, 2.499e-08, 2.28098e-06, 0, 0
    7700, 2.3574e-08, 2.17043e-06, 0, 0
    7800, 2.23915e-08, 2.05955e-06, 0, 0
    7900, 2.08815e-08, 1.94504e-06, 0, 0
    8000, 1.99506e-08, 1.85347e-06, 0, 0
    8100, 1.8958e-08, 1.76096e-06, 0, 0
    8200, 1.76839e-08, 1.66355e-06, 0, 0
    8300, 1.68919e-08, 1.58472e-06, 0, 0
    8400, 1.60511e-08, 1.50517e-06, 0, 0
    8500, 1.49842e-08, 1.42102e-06, 0, 0
    8600, 1.43019e-08, 1.35541e-06, 0, 0
    8700, 1.3584e-08, 1.28678e-06, 0, 0
    8800, 1.26811e-08, 1.21495e-06, 0, 0
    8900, 1.2104e-08, 1.15718e-06, 0, 0
    9000, 1.14298e-08, 1.09859e-06, 0, 0
    9100, 1.08074e-08, 1.04089e-06, 0, 0
    9200, 1.00521e-08, 9.78583e-07, 0, 0
    The solver residual has converged
    9212, 9.98608e-09, 9.71736e-07, 0, 0

Max sigmaEq (von Mises stress) = 868245
ExecutionTime = 125.85 s  ClockTime = 126 s

Jacobian determinant max. 1.00978 min. 0.988435

Time = 13

Evolving solid solver
Solving the total Lagrangian form of the momentum equation for DD
    Corr, res, relRes, matRes, iters
    100, 0.000144703, 0.0182807, 0, 0
    200, 3.28105e-05, 0.00958884, 0, 0
    300, 8.11838e-06, 0.000930698, 0, 0
    400, 3.76715e-06, 0.000429157, 0, 0
    500, 2.77639e-06, 0.000219536, 0, 0
    600, 2.55427e-06, 0.000169979, 0, 0
    700, 2.31812e-06, 0.000131705, 0, 0
    800, 2.18088e-06, 0.000126443, 0, 0
    900, 2.02269e-06, 0.000115192, 0, 0
    1000, 1.93062e-06, 0.000100174, 0, 0
    1100, 1.82851e-06, 9.54609e-05, 0, 0
    1200, 1.7148e-06, 7.98393e-05, 0, 0
    1300, 1.61608e-06, 7.44283e-05, 0, 0
    1400, 1.52359e-06, 6.94735e-05, 0, 0
    1500, 1.43657e-06, 6.48928e-05, 0, 0
    1600, 1.35476e-06, 6.06273e-05, 0, 0
    1700, 1.27789e-06, 5.66524e-05, 0, 0
    1800, 1.20547e-06, 5.29464e-05, 0, 0
    1900, 1.13719e-06, 4.97105e-05, 0, 0
    2000, 1.08154e-06, 4.66428e-05, 0, 0
    2100, 1.02051e-06, 4.34192e-05, 0, 0
    2200, 9.50944e-07, 4.1342e-05, 0, 0
    2300, 9.05608e-07, 3.89456e-05, 0, 0
    2400, 8.56398e-07, 3.5751e-05, 0, 0
    2500, 7.99316e-07, 3.44928e-05, 0, 0
    2600, 7.60401e-07, 3.24441e-05, 0, 0
    2700, 7.16395e-07, 3.04751e-05, 0, 0
    2800, 6.75949e-07, 2.86738e-05, 0, 0
    2900, 6.37876e-07, 2.69729e-05, 0, 0
    3000, 6.01981e-07, 2.54571e-05, 0, 0
    3100, 5.63337e-07, 2.39426e-05, 0, 0
    3200, 5.3639e-07, 2.29146e-05, 0, 0
    3300, 5.06502e-07, 2.17418e-05, 0, 0
    3400, 4.78281e-07, 2.0341e-05, 0, 0
    3500, 4.53712e-07, 1.96976e-05, 0, 0
    3600, 4.23132e-07, 1.84654e-05, 0, 0
    3700, 4.04655e-07, 1.77286e-05, 0, 0
    3800, 3.818e-07, 1.67872e-05, 0, 0
    3900, 3.60826e-07, 1.59776e-05, 0, 0
    4000, 3.40349e-07, 1.50366e-05, 0, 0
    4100, 3.21815e-07, 1.43337e-05, 0, 0
    4200, 3.02329e-07, 1.33822e-05, 0, 0
    4300, 2.83751e-07, 1.27645e-05, 0, 0
    4400, 2.70664e-07, 1.22363e-05, 0, 0
    4500, 2.54831e-07, 1.1453e-05, 0, 0
    4600, 2.40665e-07, 1.08102e-05, 0, 0
    4700, 2.27311e-07, 1.02013e-05, 0, 0
    4800, 2.14726e-07, 9.66559e-06, 0, 0
    4900, 2.02845e-07, 9.13894e-06, 0, 0
    5000, 1.91605e-07, 8.62553e-06, 0, 0
    5100, 1.81036e-07, 8.16835e-06, 0, 0
    5200, 1.71009e-07, 7.72345e-06, 0, 0
    5300, 1.61546e-07, 7.31506e-06, 0, 0
    5400, 1.52672e-07, 6.90664e-06, 0, 0
    5500, 1.44229e-07, 6.5257e-06, 0, 0
    5600, 1.36289e-07, 6.16757e-06, 0, 0
    5700, 1.28788e-07, 5.83023e-06, 0, 0
    5800, 1.21696e-07, 5.50756e-06, 0, 0
    5900, 1.14942e-07, 5.22089e-06, 0, 0
    6000, 1.08705e-07, 4.92973e-06, 0, 0
    6100, 1.02671e-07, 4.6605e-06, 0, 0
    6200, 9.71032e-08, 4.39321e-06, 0, 0
    6300, 9.17196e-08, 4.1619e-06, 0, 0
    6400, 8.6695e-08, 3.93193e-06, 0, 0
    6500, 8.19456e-08, 3.7144e-06, 0, 0
    6600, 7.74585e-08, 3.50889e-06, 0, 0
    6700, 7.32189e-08, 3.31461e-06, 0, 0
    6800, 6.92126e-08, 3.13093e-06, 0, 0
    6900, 6.54266e-08, 2.95729e-06, 0, 0
    7000, 6.18487e-08, 2.79315e-06, 0, 0
    7100, 5.84672e-08, 2.63801e-06, 0, 0
    7200, 5.52717e-08, 2.49137e-06, 0, 0
    7300, 5.22545e-08, 2.35277e-06, 0, 0
    7400, 4.94027e-08, 2.22589e-06, 0, 0
    7500, 4.67071e-08, 2.11133e-06, 0, 0
    7600, 4.41591e-08, 2.00273e-06, 0, 0
    7700, 4.17507e-08, 1.89976e-06, 0, 0
    7800, 3.94742e-08, 1.80213e-06, 0, 0
    7900, 3.73229e-08, 1.70956e-06, 0, 0
    8000, 3.52905e-08, 1.6231e-06, 0, 0
    8100, 3.33691e-08, 1.54134e-06, 0, 0
    8200, 3.15527e-08, 1.46368e-06, 0, 0
    8300, 2.98357e-08, 1.39111e-06, 0, 0
    8400, 2.82114e-08, 1.31956e-06, 0, 0
    8500, 2.66832e-08, 1.25444e-06, 0, 0
    8600, 2.52466e-08, 1.18898e-06, 0, 0
    8700, 2.38714e-08, 1.1297e-06, 0, 0
    8800, 2.25688e-08, 1.07363e-06, 0, 0
    8900, 2.13521e-08, 1.01904e-06, 0, 0
    9000, 2.01679e-08, 9.68401e-07, 0, 0
    9100, 1.90832e-08, 9.19931e-07, 0, 0
    9200, 1.80403e-08, 8.73674e-07, 0, 0
    9300, 1.70692e-08, 8.2992e-07, 0, 0
    9400, 1.6144e-08, 7.88112e-07, 0, 0
    9500, 1.52633e-08, 7.48595e-07, 0, 0
    9600, 1.44352e-08, 7.1134e-07, 0, 0
    9700, 1.36582e-08, 6.7502e-07, 0, 0
    9800, 1.29231e-08, 6.40215e-07, 0, 0
    9900, 1.22151e-08, 6.08771e-07, 0, 0
    10000, 1.15539e-08, 5.78077e-07, 0, 0
    10100, 1.09264e-08, 5.48994e-07, 0, 0
    10200, 1.03289e-08, 5.20402e-07, 0, 0
    The solver residual has converged
    10259, 9.99232e-09, 5.04856e-07, 0, 0

Max sigmaEq (von Mises stress) = 967554
ExecutionTime = 134.95 s  ClockTime = 135 s

Jacobian determinant max. 1.01097 min. 0.987041

Time = 14

Evolving solid solver
Solving the total Lagrangian form of the momentum equation for DD
    Corr, res, relRes, matRes, iters
    100, 7.14592e-05, 0.0137597, 0, 0
    200, 2.95045e-05, 0.00537396, 0, 0
    300, 1.05126e-05, 0.00138141, 0, 0
    400, 3.05402e-06, 0.000313295, 0, 0
    500, 2.14063e-06, 0.000271746, 0, 0
    600, 1.88447e-06, 0.000131647, 0, 0
    700, 1.7093e-06, 0.000155446, 0, 0
    800, 1.58784e-06, 0.000133793, 0, 0
    900, 1.48573e-06, 0.000134602, 0, 0
    1000, 1.37705e-06, 0.000105589, 0, 0
    1100, 1.30894e-06, 9.31496e-05, 0, 0
    1200, 1.23463e-06, 8.65079e-05, 0, 0
    1300, 1.16486e-06, 8.04004e-05, 0, 0
    1400, 1.09984e-06, 7.47047e-05, 0, 0
    1500, 1.03863e-06, 6.94855e-05, 0, 0
    1600, 9.80953e-07, 6.46505e-05, 0, 0
    1700, 9.26477e-07, 6.01395e-05, 0, 0
    1800, 8.7505e-07, 5.64395e-05, 0, 0
    1900, 8.31771e-07, 5.30349e-05, 0, 0
    2000, 7.84902e-07, 4.92829e-05, 0, 0
    2100, 7.33971e-07, 4.65286e-05, 0, 0
    2200, 6.9932e-07, 4.37838e-05, 0, 0
    2300, 6.61151e-07, 4.03286e-05, 0, 0
    2400, 6.19276e-07, 3.84207e-05, 0, 0
    2500, 5.89499e-07, 3.60742e-05, 0, 0
    2600, 5.57505e-07, 3.29932e-05, 0, 0
    2700, 5.22216e-07, 3.16854e-05, 0, 0
    2800, 4.96864e-07, 2.97184e-05, 0, 0
    2900, 4.69596e-07, 2.75846e-05, 0, 0
    3000, 4.44684e-07, 2.58639e-05, 0, 0
    3100, 4.20057e-07, 2.4339e-05, 0, 0
    3200, 3.96759e-07, 2.28935e-05, 0, 0
    3300, 3.7475e-07, 2.15486e-05, 0, 0
    3400, 3.53994e-07, 2.0289e-05, 0, 0
    3500, 3.34395e-07, 1.91022e-05, 0, 0
    3600, 3.15566e-07, 1.79809e-05, 0, 0
    3700, 2.98163e-07, 1.70435e-05, 0, 0
    3800, 2.81723e-07, 1.62009e-05, 0, 0
    3900, 2.66208e-07, 1.53997e-05, 0, 0
    4000, 2.51552e-07, 1.46348e-05, 0, 0
    4100, 2.37708e-07, 1.39049e-05, 0, 0
    4200, 2.24633e-07, 1.32087e-05, 0, 0
    4300, 2.12325e-07, 1.25685e-05, 0, 0
    4400, 2.00218e-07, 1.19064e-05, 0, 0
    4500, 1.88903e-07, 1.14482e-05, 0, 0
    4600, 1.79245e-07, 1.07517e-05, 0, 0
    4700, 1.69037e-07, 1.01782e-05, 0, 0
    4800, 1.60286e-07, 9.73684e-06, 0, 0
    4900, 1.51079e-07, 9.15348e-06, 0, 0
    5000, 1.42405e-07, 8.82214e-06, 0, 0
    5100, 1.34924e-07, 8.25583e-06, 0, 0
    5200, 1.27881e-07, 7.84848e-06, 0, 0
    5300, 1.20256e-07, 7.54734e-06, 0, 0
    5400, 1.14322e-07, 7.06346e-06, 0, 0
    5500, 1.07504e-07, 6.77456e-06, 0, 0
    5600, 1.01669e-07, 6.28621e-06, 0, 0
    5700, 9.60556e-08, 6.10444e-06, 0, 0
    5800, 9.01411e-08, 5.65621e-06, 0, 0
    5900, 8.60637e-08, 5.36139e-06, 0, 0
    6000, 8.11872e-08, 5.04403e-06, 0, 0
    6100, 7.68744e-08, 4.81906e-06, 0, 0
    6200, 7.30354e-08, 4.58913e-06, 0, 0
    6300, 6.85417e-08, 4.42732e-06, 0, 0
    6400, 6.51194e-08, 4.09747e-06, 0, 0
    6500, 6.14772e-08, 3.89012e-06, 0, 0
    6600, 5.81361e-08, 3.68869e-06, 0, 0
    6700, 5.49969e-08, 3.49389e-06, 0, 0
    6800, 5.20044e-08, 3.3015e-06, 0, 0
    6900, 4.91805e-08, 3.1297e-06, 0, 0
    7000, 4.65121e-08, 2.9647e-06, 0, 0
    7100, 4.3995e-08, 2.80645e-06, 0, 0
    7200, 4.16013e-08, 2.65312e-06, 0, 0
    7300, 3.93378e-08, 2.51192e-06, 0, 0
    7400, 3.72104e-08, 2.37764e-06, 0, 0
    7500, 3.52078e-08, 2.25588e-06, 0, 0
    7600, 3.32864e-08, 2.13674e-06, 0, 0
    7700, 3.14943e-08, 2.01405e-06, 0, 0
    7800, 2.97849e-08, 1.91165e-06, 0, 0
    7900, 2.8205e-08, 1.8117e-06, 0, 0
    8000, 2.66683e-08, 1.71225e-06, 0, 0
    8100, 2.525e-08, 1.62212e-06, 0, 0
    8200, 2.38771e-08, 1.53241e-06, 0, 0
    8300, 2.25968e-08, 1.45036e-06, 0, 0
    8400, 2.13821e-08, 1.37218e-06, 0, 0
    8500, 2.02332e-08, 1.2982e-06, 0, 0
    8600, 1.91464e-08, 1.22817e-06, 0, 0
    8700, 1.81182e-08, 1.16187e-06, 0, 0
    8800, 1.71453e-08, 1.09911e-06, 0, 0
    8900, 1.62247e-08, 1.03972e-06, 0, 0
    9000, 1.53537e-08, 9.83501e-07, 0, 0
    9100, 1.45294e-08, 9.30296e-07, 0, 0
    9200, 1.37494e-08, 8.79943e-07, 0, 0
    9300, 1.30114e-08, 8.32291e-07, 0, 0
    9400, 1.2313e-08, 7.87195e-07, 0, 0
    9500, 1.16528e-08, 7.44521e-07, 0, 0
    9600, 1.10285e-08, 7.04139e-07, 0, 0
    9700, 1.04377e-08, 6.65928e-07, 0, 0
    The solver residual has converged
    9778, 9.99899e-09, 6.37555e-07, 0, 0

Max sigmaEq (von Mises stress) = 1.07627e+06
ExecutionTime = 143.7 s  ClockTime = 144 s

Jacobian determinant max. 1.00677 min. 0.987308

Time = 15

Evolving solid solver
Solving the total Lagrangian form of the momentum equation for DD
    Corr, res, relRes, matRes, iters
    100, 0.000112744, 0.024323, 0, 0
    200, 2.75238e-05, 0.00534365, 0, 0
    300, 1.28528e-05, 0.00150119, 0, 0
    400, 4.73414e-06, 0.000479995, 0, 0
    500, 1.90695e-06, 0.000149854, 0, 0
    600, 1.75202e-06, 0.000112153, 0, 0
    700, 1.62706e-06, 9.25956e-05, 0, 0
    800, 1.51697e-06, 8.41098e-05, 0, 0
    900, 1.423e-06, 7.46011e-05, 0, 0
    1000, 1.31969e-06, 7.09013e-05, 0, 0
    1100, 1.23777e-06, 6.83138e-05, 0, 0
    1200, 1.17603e-06, 6.64149e-05, 0, 0
    1300, 1.10272e-06, 6.33815e-05, 0, 0
    1400, 1.0353e-06, 6.10111e-05, 0, 0
    1500, 9.74466e-07, 5.81912e-05, 0, 0
    1600, 9.16313e-07, 5.57593e-05, 0, 0
    1700, 8.64188e-07, 5.24333e-05, 0, 0
    1800, 8.11337e-07, 5.07667e-05, 0, 0
    1900, 7.68061e-07, 4.87019e-05, 0, 0
    2000, 7.23607e-07, 4.60464e-05, 0, 0
    2100, 6.80529e-07, 4.36259e-05, 0, 0
    2200, 6.30117e-07, 4.15063e-05, 0, 0
    2300, 5.93531e-07, 3.9549e-05, 0, 0
    2400, 5.59119e-07, 3.76625e-05, 0, 0
    2500, 5.33436e-07, 3.58879e-05, 0, 0
    2600, 5.0215e-07, 3.41819e-05, 0, 0
    2700, 4.73616e-07, 3.25319e-05, 0, 0
    2800, 4.45582e-07, 3.10584e-05, 0, 0
    2900, 4.22972e-07, 2.9599e-05, 0, 0
    3000, 3.97505e-07, 2.80148e-05, 0, 0
    3100, 3.72779e-07, 2.68052e-05, 0, 0
    3200, 3.51931e-07, 2.54002e-05, 0, 0
    3300, 3.33182e-07, 2.46563e-05, 0, 0
    3400, 3.12465e-07, 2.33413e-05, 0, 0
    3500, 2.94547e-07, 2.21549e-05, 0, 0
    3600, 2.7686e-07, 2.05931e-05, 0, 0
    3700, 2.61224e-07, 1.99624e-05, 0, 0
    3800, 2.46333e-07, 1.89684e-05, 0, 0
    3900, 2.32336e-07, 1.80113e-05, 0, 0
    4000, 2.19069e-07, 1.71099e-05, 0, 0
    4100, 2.06669e-07, 1.62664e-05, 0, 0
    4200, 1.94882e-07, 1.54518e-05, 0, 0
    4300, 1.83832e-07, 1.46891e-05, 0, 0
    4400, 1.7335e-07, 1.39387e-05, 0, 0
    4500, 1.63636e-07, 1.32612e-05, 0, 0
    4600, 1.54201e-07, 1.25802e-05, 0, 0
    4700, 1.45482e-07, 1.19489e-05, 0, 0
    4800, 1.37616e-07, 1.13644e-05, 0, 0
    4900, 1.29658e-07, 1.07738e-05, 0, 0
    5000, 1.22329e-07, 1.02456e-05, 0, 0
    5100, 1.15508e-07, 9.71872e-06, 0, 0
    5200, 1.0892e-07, 9.2314e-06, 0, 0
    5300, 1.02893e-07, 8.76729e-06, 0, 0
    5400, 9.70935e-08, 8.32548e-06, 0, 0
    5500, 9.1599e-08, 7.90894e-06, 0, 0
    5600, 8.64419e-08, 7.51091e-06, 0, 0
    5700, 8.15773e-08, 7.13298e-06, 0, 0
    5800, 7.69879e-08, 6.77421e-06, 0, 0
    5900, 7.26574e-08, 6.43364e-06, 0, 0
    6000, 6.85707e-08, 6.11037e-06, 0, 0
    6100, 6.47139e-08, 5.80352e-06, 0, 0
    6200, 6.10738e-08, 5.51227e-06, 0, 0
    6300, 5.76397e-08, 5.23582e-06, 0, 0
    6400, 5.43999e-08, 4.97343e-06, 0, 0
    6500, 5.13414e-08, 4.72439e-06, 0, 0
    6600, 4.84552e-08, 4.48801e-06, 0, 0
    6700, 4.57306e-08, 4.26366e-06, 0, 0
    6800, 4.31614e-08, 4.05072e-06, 0, 0
    6900, 4.07368e-08, 3.84862e-06, 0, 0
    7000, 3.84488e-08, 3.65679e-06, 0, 0
    7100, 3.6291e-08, 3.47472e-06, 0, 0
    7200, 3.42535e-08, 3.30192e-06, 0, 0
    7300, 3.23321e-08, 3.1379e-06, 0, 0
    7400, 3.05205e-08, 2.98222e-06, 0, 0
    7500, 2.88108e-08, 2.83446e-06, 0, 0
    7600, 2.71971e-08, 2.6942e-06, 0, 0
    7700, 2.56735e-08, 2.56106e-06, 0, 0
    7800, 2.42818e-08, 2.43468e-06, 0, 0
    7900, 2.30085e-08, 2.31471e-06, 0, 0
    8000, 2.18013e-08, 2.20082e-06, 0, 0
    8100, 2.06562e-08, 2.09269e-06, 0, 0
    8200, 1.9571e-08, 1.99003e-06, 0, 0
    8300, 1.857e-08, 1.89237e-06, 0, 0
    8400, 1.75892e-08, 1.81233e-06, 0, 0
    8500, 1.66973e-08, 1.71057e-06, 0, 0
    8600, 1.57704e-08, 1.64165e-06, 0, 0
    8700, 1.49862e-08, 1.55902e-06, 0, 0
    8800, 1.41916e-08, 1.4826e-06, 0, 0
    8900, 1.34353e-08, 1.41006e-06, 0, 0
    9000, 1.2718e-08, 1.34119e-06, 0, 0
    9100, 1.20377e-08, 1.27579e-06, 0, 0
    9200, 1.13926e-08, 1.21364e-06, 0, 0
    9300, 1.07809e-08, 1.16118e-06, 0, 0
    9400, 1.02143e-08, 1.09831e-06, 0, 0
    The solver residual has converged
    9433, 9.99148e-09, 1.08164e-06, 0, 0

Max sigmaEq (von Mises stress) = 1.1945e+06
ExecutionTime = 151.93 s  ClockTime = 152 s

Jacobian determinant max. 1.01267 min. 0.986484

Time = 16

Evolving solid solver
Solving the total Lagrangian form of the momentum equation for DD
    Corr, res, relRes, matRes, iters
    100, 0.000138751, 0.0258924, 0, 0
    200, 2.79619e-05, 0.00416003, 0, 0
    300, 8.60167e-06, 0.000722966, 0, 0
    400, 4.92823e-06, 0.000459081, 0, 0
    500, 3.2057e-06, 0.000321433, 0, 0
    600, 2.35402e-06, 0.000243478, 0, 0
    700, 2.12698e-06, 0.00018802, 0, 0
    800, 1.97001e-06, 0.000181435, 0, 0
    900, 1.84099e-06, 0.000147784, 0, 0
    1000, 1.7293e-06, 0.00014573, 0, 0
    1100, 1.62337e-06, 0.000117799, 0, 0
    1200, 1.52388e-06, 0.000105867, 0, 0
    1300, 1.43963e-06, 9.51426e-05, 0, 0
    1400, 1.36303e-06, 8.83711e-05, 0, 0
    1500, 1.28444e-06, 7.72977e-05, 0, 0
    1600, 1.20264e-06, 6.96039e-05, 0, 0
    1700, 1.13507e-06, 6.51719e-05, 0, 0
    1800, 1.07146e-06, 6.10431e-05, 0, 0
    1900, 1.01162e-06, 5.71895e-05, 0, 0
    2000, 9.55123e-07, 5.35917e-05, 0, 0
    2100, 9.02105e-07, 5.02073e-05, 0, 0
    2200, 8.51689e-07, 4.70595e-05, 0, 0
    2300, 8.07683e-07, 4.41319e-05, 0, 0
    2400, 7.64327e-07, 4.01108e-05, 0, 0
    2500, 7.13965e-07, 3.86551e-05, 0, 0
    2600, 6.79242e-07, 3.64281e-05, 0, 0
    2700, 6.36516e-07, 3.41407e-05, 0, 0
    2800, 6.04538e-07, 3.23344e-05, 0, 0
    2900, 5.70712e-07, 3.04698e-05, 0, 0
    3000, 5.35228e-07, 2.85299e-05, 0, 0
    3100, 5.06623e-07, 2.68817e-05, 0, 0
    3200, 4.835e-07, 2.52377e-05, 0, 0
    3300, 4.54256e-07, 2.25593e-05, 0, 0
    3400, 4.30708e-07, 2.24193e-05, 0, 0
    3500, 4.06493e-07, 2.11045e-05, 0, 0
    3600, 3.80108e-07, 1.99096e-05, 0, 0
    3700, 3.61896e-07, 1.87956e-05, 0, 0
    3800, 3.39299e-07, 1.7622e-05, 0, 0
    3900, 3.21772e-07, 1.6831e-05, 0, 0
    4000, 3.04098e-07, 1.58359e-05, 0, 0
    4100, 2.87266e-07, 1.49643e-05, 0, 0
    4200, 2.71323e-07, 1.41126e-05, 0, 0
    4300, 2.56341e-07, 1.33746e-05, 0, 0
    4400, 2.42095e-07, 1.26503e-05, 0, 0
    4500, 2.28732e-07, 1.19616e-05, 0, 0
    4600, 2.15987e-07, 1.12916e-05, 0, 0
    4700, 2.04161e-07, 1.06979e-05, 0, 0
    4800, 1.92826e-07, 1.01006e-05, 0, 0
    4900, 1.82199e-07, 9.56923e-06, 0, 0
    5000, 1.72206e-07, 9.04895e-06, 0, 0
    5100, 1.62752e-07, 8.55536e-06, 0, 0
    5200, 1.53827e-07, 8.09749e-06, 0, 0
    5300, 1.45401e-07, 7.67144e-06, 0, 0
    5400, 1.37462e-07, 7.26792e-06, 0, 0
    5500, 1.29959e-07, 6.88574e-06, 0, 0
    5600, 1.22869e-07, 6.52376e-06, 0, 0
    5700, 1.16167e-07, 6.18092e-06, 0, 0
    5800, 1.09833e-07, 5.8562e-06, 0, 0
    5900, 1.03847e-07, 5.54863e-06, 0, 0
    6000, 9.81896e-08, 5.25728e-06, 0, 0
    6100, 9.28416e-08, 4.98129e-06, 0, 0
    6200, 8.77869e-08, 4.71985e-06, 0, 0
    6300, 8.3009e-08, 4.47216e-06, 0, 0
    6400, 7.84926e-08, 4.2375e-06, 0, 0
    6500, 7.42231e-08, 4.01517e-06, 0, 0
    6600, 7.01869e-08, 3.80451e-06, 0, 0
    6700, 6.63722e-08, 3.60492e-06, 0, 0
    6800, 6.2766e-08, 3.41579e-06, 0, 0
    6900, 5.93568e-08, 3.23658e-06, 0, 0
    7000, 5.61339e-08, 3.06676e-06, 0, 0
    7100, 5.30869e-08, 2.90584e-06, 0, 0
    7200, 5.02059e-08, 2.75334e-06, 0, 0
    7300, 4.74819e-08, 2.60883e-06, 0, 0
    7400, 4.49063e-08, 2.47299e-06, 0, 0
    7500, 4.2471e-08, 2.34526e-06, 0, 0
    7600, 4.01683e-08, 2.22404e-06, 0, 0
    7700, 3.79909e-08, 2.109e-06, 0, 0
    7800, 3.5932e-08, 1.99982e-06, 0, 0
    7900, 3.39859e-08, 1.89622e-06, 0, 0
    8000, 3.2147e-08, 1.79791e-06, 0, 0
    8100, 3.0408e-08, 1.70463e-06, 0, 0
    8200, 2.87635e-08, 1.61613e-06, 0, 0
    8300, 2.72082e-08, 1.53216e-06, 0, 0
    8400, 2.57375e-08, 1.45249e-06, 0, 0
    8500, 2.4348e-08, 1.37692e-06, 0, 0
    8600, 2.30348e-08, 1.30522e-06, 0, 0
    8700, 2.17928e-08, 1.23721e-06, 0, 0
    8800, 2.0618e-08, 1.1727e-06, 0, 0
    8900, 1.95067e-08, 1.11151e-06, 0, 0
[...]
    2200, 8.28461e-07, 3.05316e-05, 0, 0
    2300, 7.90397e-07, 2.94437e-05, 0, 0
    2400, 7.53465e-07, 2.78691e-05, 0, 0
    2500, 7.14424e-07, 2.63878e-05, 0, 0
    2600, 6.76818e-07, 2.51011e-05, 0, 0
    2700, 6.40652e-07, 2.3878e-05, 0, 0
    2800, 6.06001e-07, 2.2717e-05, 0, 0
    2900, 5.72939e-07, 2.16117e-05, 0, 0
    3000, 5.41473e-07, 2.05598e-05, 0, 0
    3100, 5.1167e-07, 1.95561e-05, 0, 0
    3200, 4.83456e-07, 1.85968e-05, 0, 0
    3300, 4.56746e-07, 1.76796e-05, 0, 0
    3400, 4.31467e-07, 1.68013e-05, 0, 0
    3500, 4.07538e-07, 1.59605e-05, 0, 0
    3600, 3.84926e-07, 1.51536e-05, 0, 0
    3700, 3.63542e-07, 1.43808e-05, 0, 0
    3800, 3.44877e-07, 1.37072e-05, 0, 0
    3900, 3.26084e-07, 1.3016e-05, 0, 0
    4000, 3.07124e-07, 1.23514e-05, 0, 0
    4100, 2.8974e-07, 1.1714e-05, 0, 0
    4200, 2.7364e-07, 1.11032e-05, 0, 0
    4300, 2.58524e-07, 1.0518e-05, 0, 0
    4400, 2.44279e-07, 9.95796e-06, 0, 0
    4500, 2.30829e-07, 9.42269e-06, 0, 0
    4600, 2.18119e-07, 8.91165e-06, 0, 0
    4700, 2.07089e-07, 8.1922e-06, 0, 0
    4800, 1.94913e-07, 8.85881e-06, 0, 0
    4900, 1.85956e-07, 7.29878e-06, 0, 0
    5000, 1.73728e-07, 7.00611e-06, 0, 0
    5100, 1.64534e-07, 6.78934e-06, 0, 0
    5200, 1.56366e-07, 6.12638e-06, 0, 0
    5300, 1.46603e-07, 5.89118e-06, 0, 0
    5400, 1.39406e-07, 6.23498e-06, 0, 0
    5500, 1.31599e-07, 5.21698e-06, 0, 0
    5600, 1.24435e-07, 4.89932e-06, 0, 0
    5700, 1.16982e-07, 4.62342e-06, 0, 0
    5800, 1.1078e-07, 4.45122e-06, 0, 0
    5900, 1.05585e-07, 4.13538e-06, 0, 0
    6000, 9.96653e-08, 3.89319e-06, 0, 0
    6100, 9.34958e-08, 3.84557e-06, 0, 0
    6200, 8.76848e-08, 4.17118e-06, 0, 0
    6300, 8.35961e-08, 3.18407e-06, 0, 0
    6400, 7.90368e-08, 2.97908e-06, 0, 0
    6500, 7.42491e-08, 2.86224e-06, 0, 0
    6600, 7.01658e-08, 2.68868e-06, 0, 0
    6700, 6.59189e-08, 2.52982e-06, 0, 0
    6800, 6.24385e-08, 2.38804e-06, 0, 0
    6900, 5.87449e-08, 2.24141e-06, 0, 0
    7000, 5.5719e-08, 2.10726e-06, 0, 0
    7100, 5.23752e-08, 1.98612e-06, 0, 0
    7200, 4.96912e-08, 1.86849e-06, 0, 0
    7300, 4.68157e-08, 1.75756e-06, 0, 0
    7400, 4.44789e-08, 1.64393e-06, 0, 0
    7500, 4.18408e-08, 1.54663e-06, 0, 0
    7600, 3.95484e-08, 1.45359e-06, 0, 0
    7700, 3.74123e-08, 1.38693e-06, 0, 0
    7800, 3.53964e-08, 1.28076e-06, 0, 0
    7900, 3.31739e-08, 1.21471e-06, 0, 0
    8000, 3.15232e-08, 1.14464e-06, 0, 0
    8100, 2.96461e-08, 1.07501e-06, 0, 0
    8200, 2.81362e-08, 1.01209e-06, 0, 0
    8300, 2.64569e-08, 9.50255e-07, 0, 0
    8400, 2.51125e-08, 8.95416e-07, 0, 0
    8500, 2.369e-08, 8.37148e-07, 0, 0
    8600, 2.24219e-08, 8.45283e-07, 0, 0
    8700, 2.12117e-08, 7.41435e-07, 0, 0
    8800, 2.00068e-08, 6.96054e-07, 0, 0
    8900, 1.88409e-08, 6.54666e-07, 0, 0
    9000, 1.78511e-08, 6.2009e-07, 0, 0
    9100, 1.69018e-08, 5.7811e-07, 0, 0
    9200, 1.59587e-08, 5.44122e-07, 0, 0
    9300, 1.50724e-08, 5.10926e-07, 0, 0
    9400, 1.42444e-08, 4.83192e-07, 0, 0
    9500, 1.3453e-08, 4.5624e-07, 0, 0
    9600, 1.27123e-08, 4.33197e-07, 0, 0
    9700, 1.20219e-08, 4.08658e-07, 0, 0
    9800, 1.13759e-08, 3.89575e-07, 0, 0
    9900, 1.07126e-08, 3.69404e-07, 0, 0
    10000, 1.01171e-08, 3.50875e-07, 0, 0
    The solver residual has converged
    10023, 9.98711e-09, 3.46672e-07, 0, 0

Max sigmaEq (von Mises stress) = 3.1472e+06
ExecutionTime = 250.33 s  ClockTime = 250 s

Jacobian determinant max. 1.00736 min. 0.987173

Time = 27

Evolving solid solver
Solving the total Lagrangian form of the momentum equation for DD
    Corr, res, relRes, matRes, iters
    100, 0.000106105, 0.00548612, 0, 0
    200, 2.15008e-05, 0.000792905, 0, 0
    300, 6.61887e-06, 0.000235585, 0, 0
    400, 2.07374e-06, 0.000171395, 0, 0
    500, 1.89248e-06, 0.000119697, 0, 0
    600, 1.54825e-06, 0.000113216, 0, 0
    700, 1.34299e-06, 0.00010531, 0, 0
    800, 1.19058e-06, 9.92249e-05, 0, 0
    900, 1.06664e-06, 9.42151e-05, 0, 0
    1000, 9.64703e-07, 8.92528e-05, 0, 0
    1100, 8.77773e-07, 8.44184e-05, 0, 0
    1200, 8.02825e-07, 7.97777e-05, 0, 0
    1300, 7.37774e-07, 7.53547e-05, 0, 0
    1400, 6.8123e-07, 7.11596e-05, 0, 0
    1500, 6.30805e-07, 6.71938e-05, 0, 0
    1600, 5.85432e-07, 6.34531e-05, 0, 0
    1700, 5.44401e-07, 5.99301e-05, 0, 0
    1800, 5.07177e-07, 5.66158e-05, 0, 0
    1900, 4.75918e-07, 5.33618e-05, 0, 0
    2000, 4.44552e-07, 5.03879e-05, 0, 0
    2100, 4.14627e-07, 4.76838e-05, 0, 0
    2200, 3.85729e-07, 4.51897e-05, 0, 0
    2300, 3.61338e-07, 4.27827e-05, 0, 0
    2400, 3.38616e-07, 4.05059e-05, 0, 0
    2500, 3.18159e-07, 3.83599e-05, 0, 0
    2600, 2.98949e-07, 3.63441e-05, 0, 0
    2700, 2.81065e-07, 3.44455e-05, 0, 0
    2800, 2.64376e-07, 3.26562e-05, 0, 0
    2900, 2.48798e-07, 3.0969e-05, 0, 0
    3000, 2.3424e-07, 2.93772e-05, 0, 0
    3100, 2.20655e-07, 2.7873e-05, 0, 0
    3200, 2.07859e-07, 2.64479e-05, 0, 0
    3300, 1.95941e-07, 2.51081e-05, 0, 0
    3400, 1.84505e-07, 2.3844e-05, 0, 0
    3500, 1.73937e-07, 2.2642e-05, 0, 0
    3600, 1.64047e-07, 2.15109e-05, 0, 0
    3700, 1.54714e-07, 2.04358e-05, 0, 0
    3800, 1.45802e-07, 1.94223e-05, 0, 0
    3900, 1.37888e-07, 1.84594e-05, 0, 0
    4000, 1.30348e-07, 1.75469e-05, 0, 0
    4100, 1.2327e-07, 1.66821e-05, 0, 0
    4200, 1.16602e-07, 1.58623e-05, 0, 0
    4300, 1.10328e-07, 1.50848e-05, 0, 0
    4400, 1.04428e-07, 1.43472e-05, 0, 0
    4500, 9.88659e-08, 1.36474e-05, 0, 0
    4600, 9.36252e-08, 1.29833e-05, 0, 0
    4700, 8.86844e-08, 1.23529e-05, 0, 0
    4800, 8.40267e-08, 1.17543e-05, 0, 0
    4900, 7.96206e-08, 1.11858e-05, 0, 0
    5000, 7.54563e-08, 1.06459e-05, 0, 0
    5100, 7.15181e-08, 1.0133e-05, 0, 0
    5200, 6.77945e-08, 9.64563e-06, 0, 0
    5300, 6.42788e-08, 9.18248e-06, 0, 0
    5400, 6.09639e-08, 8.74228e-06, 0, 0
    5500, 5.81334e-08, 8.32381e-06, 0, 0
    5600, 5.54847e-08, 7.92596e-06, 0, 0
    5700, 5.29599e-08, 7.54766e-06, 0, 0
    5800, 5.05519e-08, 7.1879e-06, 0, 0
    5900, 4.82561e-08, 6.84573e-06, 0, 0
    6000, 4.60693e-08, 6.52025e-06, 0, 0
    6100, 4.39877e-08, 6.21061e-06, 0, 0
    6200, 4.2003e-08, 5.91602e-06, 0, 0
    6300, 4.01145e-08, 5.6357e-06, 0, 0
    6400, 3.83134e-08, 5.36895e-06, 0, 0
    6500, 3.65937e-08, 5.11508e-06, 0, 0
    6600, 3.49407e-08, 4.8745e-06, 0, 0
    6700, 3.33811e-08, 4.64422e-06, 0, 0
    6800, 3.18887e-08, 4.42547e-06, 0, 0
    6900, 3.04634e-08, 4.21576e-06, 0, 0
    7000, 2.91051e-08, 4.01774e-06, 0, 0
    7100, 2.7808e-08, 3.82854e-06, 0, 0
    7200, 2.65729e-08, 3.6496e-06, 0, 0
    7300, 2.53905e-08, 3.47742e-06, 0, 0
    7400, 2.4262e-08, 3.31414e-06, 0, 0
    7500, 2.31803e-08, 3.15888e-06, 0, 0
    7600, 2.21522e-08, 3.01077e-06, 0, 0
    7700, 2.11965e-08, 2.86495e-06, 0, 0
    7800, 2.02359e-08, 2.73471e-06, 0, 0
    7900, 1.93391e-08, 2.60702e-06, 0, 0
    8000, 1.84827e-08, 2.48526e-06, 0, 0
    8100, 1.76647e-08, 2.36916e-06, 0, 0
    8200, 1.68831e-08, 2.25852e-06, 0, 0
    8300, 1.61372e-08, 2.15311e-06, 0, 0
    8400, 1.54242e-08, 2.05267e-06, 0, 0
    8500, 1.47426e-08, 1.95696e-06, 0, 0
    8600, 1.40911e-08, 1.86576e-06, 0, 0
    8700, 1.34684e-08, 1.77885e-06, 0, 0
    8800, 1.28732e-08, 1.69603e-06, 0, 0
    8900, 1.23053e-08, 1.6171e-06, 0, 0
    9000, 1.17626e-08, 1.54188e-06, 0, 0
    9100, 1.1245e-08, 1.47019e-06, 0, 0
    9200, 1.07502e-08, 1.40185e-06, 0, 0
    9300, 1.02791e-08, 1.33701e-06, 0, 0
    The solver residual has converged
    9362, 9.99799e-09, 1.2972e-06, 0, 0

Max sigmaEq (von Mises stress) = 3.40155e+06
ExecutionTime = 258.97 s  ClockTime = 259 s

Jacobian determinant max. 1.01537 min. 0.987768

Time = 28

Evolving solid solver
Solving the total Lagrangian form of the momentum equation for DD
    Corr, res, relRes, matRes, iters
    100, 0.000252696, 0.0149041, 0, 0
    200, 4.05048e-05, 0.00110589, 0, 0
    300, 1.06833e-05, 0.000536221, 0, 0
    400, 5.35296e-06, 0.000304187, 0, 0
    500, 3.33646e-06, 0.000207976, 0, 0
    600, 2.34241e-06, 0.000173514, 0, 0
    700, 1.83459e-06, 0.000146188, 0, 0
    800, 1.52056e-06, 0.000120944, 0, 0
    900, 1.37513e-06, 9.90923e-05, 0, 0
    1000, 1.28843e-06, 8.406e-05, 0, 0
    1100, 1.18882e-06, 6.3394e-05, 0, 0
    1200, 1.14669e-06, 5.29531e-05, 0, 0
    1300, 1.08456e-06, 4.65271e-05, 0, 0
    1400, 1.04479e-06, 4.20915e-05, 0, 0
    1500, 9.90227e-07, 3.8306e-05, 0, 0
    1600, 9.52349e-07, 3.53278e-05, 0, 0
    1700, 9.07392e-07, 3.30498e-05, 0, 0
    1800, 8.66984e-07, 3.19874e-05, 0, 0
    1900, 8.2089e-07, 2.93639e-05, 0, 0
    2000, 7.90633e-07, 2.84629e-05, 0, 0
    2100, 7.54464e-07, 2.69085e-05, 0, 0
    2200, 7.15126e-07, 2.54653e-05, 0, 0
    2300, 6.76711e-07, 2.41217e-05, 0, 0
    2400, 6.39847e-07, 2.28663e-05, 0, 0
    2500, 6.04693e-07, 2.17027e-05, 0, 0
    2600, 5.71231e-07, 2.07328e-05, 0, 0
    2700, 5.39533e-07, 1.97964e-05, 0, 0
    2800, 5.09562e-07, 1.88885e-05, 0, 0
    2900, 4.81249e-07, 1.80101e-05, 0, 0
    3000, 4.54096e-07, 1.7038e-05, 0, 0
    3100, 4.28488e-07, 1.64195e-05, 0, 0
    3200, 4.05059e-07, 1.57063e-05, 0, 0
    3300, 3.83666e-07, 1.48275e-05, 0, 0
    3400, 3.62428e-07, 1.40559e-05, 0, 0
    3500, 3.45938e-07, 1.2785e-05, 0, 0
    3600, 3.21428e-07, 1.24577e-05, 0, 0
    3700, 3.08481e-07, 1.25621e-05, 0, 0
    3800, 2.90899e-07, 1.10167e-05, 0, 0
    3900, 2.74753e-07, 1.03855e-05, 0, 0
    4000, 2.59912e-07, 9.80327e-06, 0, 0
    4100, 2.47445e-07, 9.75833e-06, 0, 0
    4200, 2.32123e-07, 8.68148e-06, 0, 0
    4300, 2.19607e-07, 8.15936e-06, 0, 0
    4400, 2.07799e-07, 8.18385e-06, 0, 0
    4500, 1.97421e-07, 7.23804e-06, 0, 0
    4600, 1.8684e-07, 6.78221e-06, 0, 0
    4700, 1.75517e-07, 6.96973e-06, 0, 0
    4800, 1.65259e-07, 6.215e-06, 0, 0
    4900, 1.56797e-07, 6.17453e-06, 0, 0
    5000, 1.47338e-07, 5.47406e-06, 0, 0
    5100, 1.37097e-07, 5.12786e-06, 0, 0
    5200, 1.31347e-07, 4.74088e-06, 0, 0
    5300, 1.24485e-07, 4.80055e-06, 0, 0
    5400, 1.15593e-07, 4.25314e-06, 0, 0
    5500, 1.10337e-07, 3.92386e-06, 0, 0
    5600, 1.03634e-07, 3.6943e-06, 0, 0
    5700, 9.72224e-08, 3.51756e-06, 0, 0
    5800, 9.31497e-08, 3.24748e-06, 0, 0
    5900, 8.72077e-08, 3.04788e-06, 0, 0
    6000, 8.28268e-08, 2.85903e-06, 0, 0
    6100, 7.84976e-08, 2.9311e-06, 0, 0
    6200, 7.38964e-08, 2.51734e-06, 0, 0
    6300, 6.89174e-08, 2.36534e-06, 0, 0
    6400, 6.60528e-08, 2.21679e-06, 0, 0
    6500, 6.1197e-08, 2.10561e-06, 0, 0
    6600, 5.84645e-08, 2.00182e-06, 0, 0
    6700, 5.44256e-08, 1.91663e-06, 0, 0
    6800, 5.15476e-08, 1.82026e-06, 0, 0
    6900, 4.89939e-08, 1.72562e-06, 0, 0
    7000, 4.65397e-08, 1.66577e-06, 0, 0
    7100, 4.31932e-08, 1.54509e-06, 0, 0
    7200, 4.09977e-08, 1.45577e-06, 0, 0
    7300, 3.87927e-08, 1.39866e-06, 0, 0
    7400, 3.65362e-08, 1.31612e-06, 0, 0
    7500, 3.41271e-08, 1.27197e-06, 0, 0
    7600, 3.25009e-08, 1.18768e-06, 0, 0
    7700, 3.08514e-08, 1.13854e-06, 0, 0
    7800, 2.91362e-08, 1.08143e-06, 0, 0
    7900, 2.71558e-08, 1.03482e-06, 0, 0
    8000, 2.56069e-08, 9.98175e-07, 0, 0
    8100, 2.41701e-08, 9.22821e-07, 0, 0
    8200, 2.29614e-08, 8.83581e-07, 0, 0
    8300, 2.14315e-08, 8.44592e-07, 0, 0
    8400, 2.00697e-08, 7.96726e-07, 0, 0
    8500, 1.93513e-08, 7.55474e-07, 0, 0
    8600, 1.80382e-08, 7.23034e-07, 0, 0
    8700, 1.70384e-08, 6.95905e-07, 0, 0
    8800, 1.60618e-08, 6.49064e-07, 0, 0
    8900, 1.52308e-08, 6.163e-07, 0, 0
    9000, 1.42874e-08, 5.87517e-07, 0, 0
    9100, 1.33471e-08, 5.60155e-07, 0, 0
    9200, 1.28326e-08, 5.27993e-07, 0, 0
    9300, 1.19667e-08, 4.96433e-07, 0, 0
    9400, 1.13165e-08, 4.79891e-07, 0, 0
    9500, 1.06498e-08, 4.50749e-07, 0, 0
    The solver residual has converged
    9597, 9.99131e-09, 4.32624e-07, 0, 0

Max sigmaEq (von Mises stress) = 3.67542e+06
ExecutionTime = 267.69 s  ClockTime = 268 s

Jacobian determinant max. 1.00769 min. 0.986566

Time = 29

Evolving solid solver
Solving the total Lagrangian form of the momentum equation for DD
    Corr, res, relRes, matRes, iters
    100, 0.000143229, 0.00615578, 0, 0
    200, 2.81508e-05, 0.000867068, 0, 0
    300, 6.97899e-06, 0.00019562, 0, 0
    400, 2.395e-06, 0.000110459, 0, 0
    500, 1.7417e-06, 7.61941e-05, 0, 0
    600, 1.43583e-06, 7.26962e-05, 0, 0
    700, 1.2285e-06, 6.94198e-05, 0, 0
    800, 1.07663e-06, 6.57412e-05, 0, 0
    900, 9.70756e-07, 6.37763e-05, 0, 0
    1000, 8.81421e-07, 6.2731e-05, 0, 0
    1100, 8.08977e-07, 6.12369e-05, 0, 0
    1200, 7.47279e-07, 5.94323e-05, 0, 0
    1300, 6.93117e-07, 5.74285e-05, 0, 0
    1400, 6.44914e-07, 5.53035e-05, 0, 0
    1500, 6.02606e-07, 5.3396e-05, 0, 0
    1600, 5.64328e-07, 5.11554e-05, 0, 0
    1700, 5.2863e-07, 4.89191e-05, 0, 0
    1800, 4.95914e-07, 4.67127e-05, 0, 0
    1900, 4.6558e-07, 4.45638e-05, 0, 0
    2000, 4.37479e-07, 4.24818e-05, 0, 0
    2100, 4.10899e-07, 4.04785e-05, 0, 0
    2200, 3.86883e-07, 3.85351e-05, 0, 0
    2300, 3.63302e-07, 3.66794e-05, 0, 0
    2400, 3.41779e-07, 3.49033e-05, 0, 0
    2500, 3.21881e-07, 3.32062e-05, 0, 0
    2600, 3.0339e-07, 3.15853e-05, 0, 0
    2700, 2.85452e-07, 3.00456e-05, 0, 0
    2800, 2.69727e-07, 2.85524e-05, 0, 0
    2900, 2.54075e-07, 2.71492e-05, 0, 0
    3000, 2.39329e-07, 2.58145e-05, 0, 0
    3100, 2.25029e-07, 2.45653e-05, 0, 0
    3200, 2.1249e-07, 2.33386e-05, 0, 0
    3300, 2.00126e-07, 2.21898e-05, 0, 0
    3400, 1.88556e-07, 2.1098e-05, 0, 0
    3500, 1.77944e-07, 2.00618e-05, 0, 0
    3600, 1.679e-07, 1.90767e-05, 0, 0
    3700, 1.58234e-07, 1.8139e-05, 0, 0
    3800, 1.49128e-07, 1.72482e-05, 0, 0
    3900, 1.40547e-07, 1.64017e-05, 0, 0
    4000, 1.32458e-07, 1.55973e-05, 0, 0
    4100, 1.24904e-07, 1.48329e-05, 0, 0
    4200, 1.17799e-07, 1.41066e-05, 0, 0
    4300, 1.11102e-07, 1.34165e-05, 0, 0
    4400, 1.04789e-07, 1.27608e-05, 0, 0
    4500, 9.88385e-08, 1.21377e-05, 0, 0
    4600, 9.32348e-08, 1.15456e-05, 0, 0
    4700, 8.80389e-08, 1.09829e-05, 0, 0
    4800, 8.31385e-08, 1.04482e-05, 0, 0
    4900, 7.85128e-08, 9.93999e-06, 0, 0
    5000, 7.41456e-08, 9.45697e-06, 0, 0
    5100, 7.00212e-08, 8.99787e-06, 0, 0
    5200, 6.61272e-08, 8.56147e-06, 0, 0
    5300, 6.24992e-08, 8.14662e-06, 0, 0
    5400, 5.91154e-08, 7.75224e-06, 0, 0
    5500, 5.59167e-08, 7.37729e-06, 0, 0
    5600, 5.28925e-08, 7.02079e-06, 0, 0
    5700, 5.00319e-08, 6.68182e-06, 0, 0
    5800, 4.7329e-08, 6.35949e-06, 0, 0
    5900, 4.45058e-08, 6.05451e-06, 0, 0
    6000, 4.21341e-08, 5.76044e-06, 0, 0
    6100, 3.98729e-08, 5.48585e-06, 0, 0
    6200, 3.77341e-08, 5.22187e-06, 0, 0
    6300, 3.57472e-08, 4.97082e-06, 0, 0
    6400, 3.38923e-08, 4.73206e-06, 0, 0
    6500, 3.21357e-08, 4.50496e-06, 0, 0
    6600, 3.04696e-08, 4.28844e-06, 0, 0
    6700, 2.90038e-08, 4.08332e-06, 0, 0
    6800, 2.7709e-08, 3.88769e-06, 0, 0
    6900, 2.64686e-08, 3.70197e-06, 0, 0
    7000, 2.52873e-08, 3.52482e-06, 0, 0
    7100, 2.41596e-08, 3.35633e-06, 0, 0
    7200, 2.30851e-08, 3.19601e-06, 0, 0
    7300, 2.20587e-08, 3.04346e-06, 0, 0
    7400, 2.1078e-08, 2.89831e-06, 0, 0
    7500, 2.01407e-08, 2.76017e-06, 0, 0
    7600, 1.92449e-08, 2.62871e-06, 0, 0
    7700, 1.83889e-08, 2.50358e-06, 0, 0
    7800, 1.75715e-08, 2.38449e-06, 0, 0
    7900, 1.67915e-08, 2.27114e-06, 0, 0
    8000, 1.6046e-08, 2.16323e-06, 0, 0
    8100, 1.53334e-08, 2.06051e-06, 0, 0
    8200, 1.46522e-08, 1.96272e-06, 0, 0
    8300, 1.40014e-08, 1.86963e-06, 0, 0
    8400, 1.33816e-08, 1.78099e-06, 0, 0
    8500, 1.27896e-08, 1.69661e-06, 0, 0
    8600, 1.22237e-08, 1.61626e-06, 0, 0
    8700, 1.16828e-08, 1.53975e-06, 0, 0
    8800, 1.11357e-08, 1.46522e-06, 0, 0
    8900, 1.06859e-08, 1.4005e-06, 0, 0
    9000, 1.02112e-08, 1.32832e-06, 0, 0
    The solver residual has converged
    9045, 9.99624e-09, 1.30149e-06, 0, 0

Max sigmaEq (von Mises stress) = 3.96983e+06
ExecutionTime = 276.04 s  ClockTime = 276 s

Jacobian determinant max. 1.01675 min. 0.988275

Time = 30

Evolving solid solver
Solving the total Lagrangian form of the momentum equation for DD
    Corr, res, relRes, matRes, iters
    100, 0.00024326, 0.00882042, 0, 0
    200, 4.27719e-05, 0.000857101, 0, 0
    300, 7.93527e-06, 0.000314471, 0, 0
    400, 4.21166e-06, 0.000193589, 0, 0
    500, 2.34736e-06, 0.000149511, 0, 0
    600, 1.72056e-06, 0.000120202, 0, 0
    700, 1.3201e-06, 9.70395e-05, 0, 0
    800, 1.14077e-06, 7.94889e-05, 0, 0
    900, 1.04084e-06, 6.4513e-05, 0, 0
    1000, 9.58898e-07, 5.33547e-05, 0, 0
    1100, 8.85575e-07, 4.50427e-05, 0, 0
    1200, 8.36291e-07, 3.9769e-05, 0, 0
    1300, 7.88486e-07, 3.66043e-05, 0, 0
    1400, 7.51331e-07, 3.398e-05, 0, 0
    1500, 7.33529e-07, 3.20335e-05, 0, 0
    1600, 6.99765e-07, 2.98596e-05, 0, 0
    1700, 6.645e-07, 2.78846e-05, 0, 0
    1800, 6.42457e-07, 2.5954e-05, 0, 0
    1900, 6.09205e-07, 2.44505e-05, 0, 0
    2000, 5.76433e-07, 2.32153e-05, 0, 0
    2100, 5.4522e-07, 2.20525e-05, 0, 0
    2200, 5.15725e-07, 2.09502e-05, 0, 0
    2300, 4.87988e-07, 1.99044e-05, 0, 0
    2400, 4.62002e-07, 1.88994e-05, 0, 0
    2500, 4.37711e-07, 1.79376e-05, 0, 0
    2600, 4.14834e-07, 1.7013e-05, 0, 0
    2700, 3.92761e-07, 1.63064e-05, 0, 0
    2800, 3.72948e-07, 1.53835e-05, 0, 0
    2900, 3.5572e-07, 1.44837e-05, 0, 0
    3000, 3.37902e-07, 1.36847e-05, 0, 0
    3100, 3.2093e-07, 1.29215e-05, 0, 0
    3200, 3.05161e-07, 1.48248e-05, 0, 0
    3300, 2.90671e-07, 1.1159e-05, 0, 0
    3400, 2.73704e-07, 1.0585e-05, 0, 0
    3500, 2.6017e-07, 1.00187e-05, 0, 0
    3600, 2.46244e-07, 9.42385e-06, 0, 0
    3700, 2.33143e-07, 8.70635e-06, 0, 0
    3800, 2.191e-07, 8.34314e-06, 0, 0
    3900, 2.09178e-07, 7.84116e-06, 0, 0
    4000, 1.96995e-07, 7.40514e-06, 0, 0
    4100, 1.86274e-07, 7.54465e-06, 0, 0
    4200, 1.77216e-07, 6.40055e-06, 0, 0
    4300, 1.67229e-07, 6.20193e-06, 0, 0
    4400, 1.57763e-07, 5.80673e-06, 0, 0
    4500, 1.50246e-07, 5.65892e-06, 0, 0
    4600, 1.42833e-07, 5.11426e-06, 0, 0
    4700, 1.33843e-07, 4.81074e-06, 0, 0
    4800, 1.25413e-07, 4.58381e-06, 0, 0
    4900, 1.20121e-07, 4.30655e-06, 0, 0
    5000, 1.14063e-07, 4.04221e-06, 0, 0
    5100, 1.06377e-07, 3.79682e-06, 0, 0
    5200, 1.00518e-07, 3.55669e-06, 0, 0
    5300, 9.61965e-08, 3.31864e-06, 0, 0
    5400, 9.04375e-08, 3.11561e-06, 0, 0
    5500, 8.46604e-08, 2.92763e-06, 0, 0
    5600, 8.0582e-08, 2.7023e-06, 0, 0
    5700, 7.68756e-08, 2.5623e-06, 0, 0
    5800, 7.26079e-08, 2.41911e-06, 0, 0
    5900, 6.86563e-08, 2.47484e-06, 0, 0
    6000, 6.42626e-08, 2.21867e-06, 0, 0
    6100, 6.11883e-08, 2.1171e-06, 0, 0
    6200, 5.77369e-08, 2.00628e-06, 0, 0
    6300, 5.42822e-08, 1.92905e-06, 0, 0
    6400, 5.11265e-08, 1.83341e-06, 0, 0
    6500, 4.8476e-08, 1.74204e-06, 0, 0
    6600, 4.53574e-08, 1.67235e-06, 0, 0
    6700, 4.22006e-08, 1.59465e-06, 0, 0
    6800, 3.99156e-08, 1.51859e-06, 0, 0
    6900, 3.76772e-08, 1.44639e-06, 0, 0
    7000, 3.64233e-08, 1.36625e-06, 0, 0
    7100, 3.41685e-08, 1.31021e-06, 0, 0
    7200, 3.22883e-08, 1.26289e-06, 0, 0
    7300, 3.0293e-08, 1.18362e-06, 0, 0
    7400, 2.89773e-08, 1.12779e-06, 0, 0
    7500, 2.71046e-08, 1.08072e-06, 0, 0
    7600, 2.53214e-08, 1.02535e-06, 0, 0
    7700, 2.43565e-08, 9.71174e-07, 0, 0
    7800, 2.28884e-08, 9.31207e-07, 0, 0
    7900, 2.16918e-08, 8.94234e-07, 0, 0
    8000, 2.0372e-08, 8.38881e-07, 0, 0
    8100, 1.94071e-08, 8.0083e-07, 0, 0
    8200, 1.81909e-08, 7.6677e-07, 0, 0
    8300, 1.72035e-08, 7.27976e-07, 0, 0
    8400, 1.63614e-08, 6.89109e-07, 0, 0
    8500, 1.52219e-08, 6.58229e-07, 0, 0
    8600, 1.45269e-08, 6.27918e-07, 0, 0
    8700, 1.38007e-08, 5.9546e-07, 0, 0
    8800, 1.30316e-08, 5.67362e-07, 0, 0
    8900, 1.23185e-08, 5.29637e-07, 0, 0
    9000, 1.16109e-08, 5.08389e-07, 0, 0
    9100, 1.09644e-08, 4.86516e-07, 0, 0
    9200, 1.03319e-08, 4.65387e-07, 0, 0
    The solver residual has converged
    9223, 9.99179e-09, 4.6251e-07, 0, 0

Max sigmaEq (von Mises stress) = 4.28984e+06
ExecutionTime = 284.38 s  ClockTime = 285 s

Jacobian determinant max. 1.00881 min. 0.98466

The momentum equation converged in all time-steps


End

