/*---------------------------------------------------------------------------*\
| =========                 |                                                 |
| \\      /  F ield         | foam-extend: Open Source CFD                    |
|  \\    /   O peration     | Version:     4.1                                |
|   \\  /    A nd           | Web:         http://www.foam-extend.org         |
|    \\/     M anipulation  | For copyright notice see file Copyright         |
\*---------------------------------------------------------------------------*/
Build  : 4.1-70b064d0f326
Exec   : solids4Foam
Date   : Dec 15 2022
Time   : 14:47:36
Host   : "iloliveira"
PID    : 404445
CtrlDict : "/home/iloliveira/foam/solids4foam-fork-fe41/tutorials/solids/hyperelasticity/tests/test1-UL/system/controlDict"
Case   : /home/iloliveira/foam/solids4foam-fork-fe41/tutorials/solids/hyperelasticity/tests/test1-UL
nProcs : 1
sigFpe : Enabling floating point exception trapping (FOAM_SIGFPE).
allowSystemOperations : Disallowing user-supplied system call operations

// * * * * * * * * * * * * * * * * * * * * * * * * * * * * * * * * * * * * * //
Create time

/*---------------------------------------------------------------------------*\
|    For further information on the solids4Foam toolbox implementations,      |
|    please see the following publications:                                   |
|                                                                             |
|    P. Cardiff, A Karac, P. De Jaeger, H. Jasak, J. Nagy, A. Ivankovic,      |
|    Z. Tukovic: An open-source finite volume toolbox for solid mechanics and |
|    fluid-solid interaction simulations. arXiv:1808.10736v2, 2018, available |
|    at https://arxiv.org/abs/1808.10736.                                     |
|                                                                             |
|    Z. Tukovic, A. Karac, P. Cardiff, H. Jasak, A. Ivankovic: OpenFOAM       |
|    finite volume solver for fluid-solid interaction.  Transactions of       |
|    Famena, 42 (3), pp. 1-31, 2018, 10.21278/TOF.42301.                      |
\*---------------------------------------------------------------------------*/

Selecting physicsModel solidModel
Selecting solidModel nonLinearGeometryUpdatedLagrangian
Selecting dynamicFvMesh staticFvMesh
Creating fixedDisplacement boundary condition
    displacement is time-varying
Symmetry boundary condition with non-orthogonal correction
Symmetry boundary condition with non-orthogonal correction
    under-relaxation method: fixed
Creating the mechanicalModel
Selecting mechanical law MooneyRivlinElastic
    Laplacian equation will be solved for pressure
    pressureSmoothingScaleFactor: 100
Material properties 
    max(c10) = 293000
    max(c01) = 177000
    max(c11) = 0
    max(mu) = 940000
    max(K) = 1.41e+09
Reading individual shadowPatch
    solidContact: topContact
        useNewPointDistanceMethod: false
        projectPointsToPatchBoundary: false
        usePrevCandidateMasterNeighbors: false
    Normal contact model: standardPenalty
    Initialising stored previous normalPenaltyFactors
    Friction contact model: frictionless
    normal penalty factor: 8.63995e+10
Creating displacement function object
    region = region0
    distance from specified point is 0
Creating forceCylinder function object
Creating Jacob function object
Jacobian determinant max. 1 min. 1

Time = 1

Evolving solid solver
Solving the updated Lagrangian form of the momentum equation for DD
setCellDisplacements: reading cellDisplacements
    Corr, res, relRes, matRes, iters
    100, 0.000252163, 0.00284797, 0, 0
    200, 4.08242e-05, 0.000290203, 0, 0
    300, 3.91764e-05, 0.000635278, 0, 0
    400, 4.07373e-05, 0.000693045, 0, 0
    500, 4.18552e-05, 0.000703778, 0, 0
    600, 4.33651e-05, 0.000706215, 0, 0
    700, 4.5169e-05, 0.000706284, 0, 0
    800, 4.62145e-05, 0.000705041, 0, 0
    900, 4.43792e-05, 0.000702726, 0, 0
    1000, 4.26489e-05, 0.000699559, 0, 0
    1100, 4.09862e-05, 0.000695531, 0, 0
    1200, 3.94032e-05, 0.000690734, 0, 0
    1300, 3.7906e-05, 0.000685231, 0, 0
    1400, 3.64945e-05, 0.000679085, 0, 0
    1500, 3.51985e-05, 0.000672335, 0, 0
    1600, 3.39636e-05, 0.000665101, 0, 0
    1700, 3.27857e-05, 0.000657405, 0, 0
    1800, 3.16542e-05, 0.000649303, 0, 0
    1900, 3.05677e-05, 0.000640854, 0, 0
    2000, 2.95985e-05, 0.00063212, 0, 0
    2100, 2.86872e-05, 0.000623143, 0, 0
    2200, 2.7811e-05, 0.000613978, 0, 0
    2300, 2.71795e-05, 0.000604677, 0, 0
    2400, 2.80705e-05, 0.000595291, 0, 0
    2500, 2.9187e-05, 0.000585851, 0, 0
    2600, 3.04239e-05, 0.000576392, 0, 0
    2700, 3.16915e-05, 0.000566958, 0, 0
    2800, 3.29794e-05, 0.000557578, 0, 0
    2900, 3.42736e-05, 0.000547827, 0, 0
    3000, 3.55548e-05, 0.000537379, 0, 0
    3100, 3.6846e-05, 0.000527119, 0, 0
    3200, 3.80951e-05, 0.000517144, 0, 0
    3300, 3.42956e-05, 0.000224665, 0, 0
    3400, 3.18863e-05, 0.000101324, 0, 0
    3500, 3.29313e-05, 0.00014778, 0, 0
    3600, 2.87082e-05, 7.49486e-05, 0, 0
    3700, 2.62096e-05, 7.41305e-05, 0, 0
    3800, 2.48212e-05, 7.0727e-05, 0, 0
    3900, 2.36602e-05, 6.78208e-05, 0, 0
    4000, 2.258e-05, 6.49941e-05, 0, 0
    4100, 2.16531e-05, 6.22117e-05, 0, 0
    4200, 2.07835e-05, 5.9537e-05, 0, 0
    4300, 1.99624e-05, 5.69375e-05, 0, 0
    4400, 1.91923e-05, 5.44801e-05, 0, 0
    4500, 1.84781e-05, 5.21037e-05, 0, 0
    4600, 1.77553e-05, 4.98476e-05, 0, 0
    4700, 1.7058e-05, 4.76458e-05, 0, 0
    4800, 1.64374e-05, 4.56439e-05, 0, 0
    4900, 1.57862e-05, 4.36216e-05, 0, 0
    5000, 1.52038e-05, 4.17092e-05, 0, 0
    5100, 1.46236e-05, 4.00081e-05, 0, 0
    5200, 1.41015e-05, 3.8306e-05, 0, 0
    5300, 1.36082e-05, 3.68999e-05, 0, 0
    5400, 1.31162e-05, 3.55234e-05, 0, 0
    5500, 1.26355e-05, 3.41212e-05, 0, 0
    5600, 1.2185e-05, 3.29043e-05, 0, 0
    5700, 1.17462e-05, 3.17705e-05, 0, 0
    5800, 1.13305e-05, 3.04414e-05, 0, 0
    5900, 1.09424e-05, 2.93851e-05, 0, 0
    6000, 1.05732e-05, 2.81744e-05, 0, 0
    6100, 1.02133e-05, 2.71051e-05, 0, 0
    6200, 9.86782e-06, 2.60742e-05, 0, 0
    6300, 9.54263e-06, 2.50783e-05, 0, 0
    6400, 9.23029e-06, 2.41169e-05, 0, 0
    6500, 8.93053e-06, 2.31917e-05, 0, 0
    6600, 8.64253e-06, 2.23018e-05, 0, 0
    6700, 8.36763e-06, 2.14458e-05, 0, 0
    6800, 8.10269e-06, 2.06225e-05, 0, 0
    6900, 7.8483e-06, 1.98306e-05, 0, 0
    7000, 7.60415e-06, 1.90688e-05, 0, 0
    7100, 7.36862e-06, 1.8336e-05, 0, 0
    7200, 7.14168e-06, 1.76311e-05, 0, 0
    7300, 6.92281e-06, 1.69531e-05, 0, 0
    7400, 6.71196e-06, 1.6301e-05, 0, 0
    7500, 6.50908e-06, 1.56737e-05, 0, 0
    7600, 6.3136e-06, 1.50704e-05, 0, 0
    7700, 6.1272e-06, 1.449e-05, 0, 0
    7800, 5.94966e-06, 1.39318e-05, 0, 0
    7900, 5.78009e-06, 1.33949e-05, 0, 0
    8000, 5.61697e-06, 1.28785e-05, 0, 0
    8100, 5.45989e-06, 1.23816e-05, 0, 0
    8200, 5.3081e-06, 1.19037e-05, 0, 0
    8300, 5.16141e-06, 1.1445e-05, 0, 0
    8400, 5.02025e-06, 1.10024e-05, 0, 0
    8500, 4.88439e-06, 1.05772e-05, 0, 0
    8600, 4.75305e-06, 1.01689e-05, 0, 0
    8700, 4.62293e-06, 9.78441e-06, 0, 0
    8800, 4.49951e-06, 9.41091e-06, 0, 0
    8900, 4.38808e-06, 9.04799e-06, 0, 0
    9000, 4.27907e-06, 8.69854e-06, 0, 0
    9100, 4.17291e-06, 8.36136e-06, 0, 0
    9200, 4.07056e-06, 8.03672e-06, 0, 0
    9300, 3.97179e-06, 7.72427e-06, 0, 0
    9400, 3.87629e-06, 7.42368e-06, 0, 0
    9500, 3.78736e-06, 7.13398e-06, 0, 0
    9600, 3.69896e-06, 6.86043e-06, 0, 0
    9700, 3.61311e-06, 6.63267e-06, 0, 0
    9800, 3.52994e-06, 6.41455e-06, 0, 0
    9900, 3.4498e-06, 6.20561e-06, 0, 0
    10000, 3.37252e-06, 6.00546e-06, 0, 0
    10100, 3.29805e-06, 5.81374e-06, 0, 0
    10200, 3.22594e-06, 5.63007e-06, 0, 0
    10300, 3.15666e-06, 5.45412e-06, 0, 0
    10400, 3.09011e-06, 5.28555e-06, 0, 0
    10500, 3.02585e-06, 5.12404e-06, 0, 0
    10600, 2.96332e-06, 4.98482e-06, 0, 0
    10700, 2.90305e-06, 4.81064e-06, 0, 0
    10800, 2.84252e-06, 4.67136e-06, 0, 0
    10900, 2.7855e-06, 4.53893e-06, 0, 0
    11000, 2.7281e-06, 4.42115e-06, 0, 0
    11100, 2.67328e-06, 4.29692e-06, 0, 0
    11200, 2.62169e-06, 4.17733e-06, 0, 0
    11300, 2.57241e-06, 4.06292e-06, 0, 0
    11400, 2.52509e-06, 3.95227e-06, 0, 0
    11500, 2.47936e-06, 3.84636e-06, 0, 0
    11600, 2.43519e-06, 3.74452e-06, 0, 0
    11700, 2.393e-06, 3.64633e-06, 0, 0
    11800, 2.35216e-06, 3.55263e-06, 0, 0
    11900, 2.31269e-06, 3.4627e-06, 0, 0
    12000, 2.27451e-06, 3.37673e-06, 0, 0
    12100, 2.24027e-06, 3.30706e-06, 0, 0
    12200, 2.20541e-06, 3.22108e-06, 0, 0
    12300, 2.17201e-06, 3.14222e-06, 0, 0
    12400, 2.13876e-06, 3.06637e-06, 0, 0
    12500, 2.10625e-06, 2.99334e-06, 0, 0
    12600, 2.07436e-06, 2.92451e-06, 0, 0
    12700, 2.04332e-06, 2.85833e-06, 0, 0
    12800, 2.0133e-06, 2.7941e-06, 0, 0
    12900, 1.98408e-06, 2.73329e-06, 0, 0
    13000, 1.95564e-06, 2.67457e-06, 0, 0
    13100, 1.9279e-06, 2.61794e-06, 0, 0
    13200, 1.90096e-06, 2.56337e-06, 0, 0
    13300, 1.87476e-06, 2.5108e-06, 0, 0
    13400, 1.84916e-06, 2.46685e-06, 0, 0
    13500, 1.82447e-06, 2.39692e-06, 0, 0
    13600, 1.80089e-06, 2.28872e-06, 0, 0
    13700, 1.77721e-06, 2.26193e-06, 0, 0
    13800, 1.75388e-06, 2.22439e-06, 0, 0
    13900, 1.73137e-06, 2.1877e-06, 0, 0
    14000, 1.70952e-06, 2.15051e-06, 0, 0
    14100, 1.6883e-06, 2.11374e-06, 0, 0
    14200, 1.66755e-06, 2.07859e-06, 0, 0
    14300, 1.64743e-06, 2.04382e-06, 0, 0
    14400, 1.62783e-06, 2.00979e-06, 0, 0
    14500, 1.60865e-06, 1.97751e-06, 0, 0
    14600, 1.59e-06, 1.9457e-06, 0, 0
    14700, 1.57182e-06, 1.91463e-06, 0, 0
    14800, 1.55647e-06, 1.87203e-06, 0, 0
    14900, 1.54168e-06, 1.84013e-06, 0, 0
    15000, 1.52562e-06, 1.81202e-06, 0, 0
    15100, 1.50941e-06, 1.78769e-06, 0, 0
    15200, 1.49342e-06, 1.76453e-06, 0, 0
    15300, 1.47724e-06, 1.75027e-06, 0, 0
    15400, 1.46271e-06, 1.77249e-06, 0, 0
    15500, 1.44842e-06, 1.41811e-06, 0, 0
    15600, 1.43158e-06, 1.39237e-06, 0, 0
    15700, 1.41804e-06, 1.71874e-06, 0, 0
    15800, 1.39886e-06, 1.77293e-06, 0, 0
    15900, 1.3884e-06, 1.35325e-06, 0, 0
    16000, 1.36277e-06, 1.33387e-06, 0, 0
    16100, 1.3497e-06, 1.66679e-06, 0, 0
    16200, 1.34054e-06, 1.72128e-06, 0, 0
    16300, 1.33394e-06, 1.2842e-06, 0, 0
    16400, 1.32267e-06, 1.27327e-06, 0, 0
    16500, 1.30362e-06, 1.66568e-06, 0, 0
    16600, 1.31054e-06, 1.24249e-06, 0, 0
    16700, 1.2854e-06, 1.66156e-06, 0, 0
    16800, 1.29228e-06, 1.2247e-06, 0, 0
    16900, 1.28541e-06, 1.20011e-06, 0, 0
    17000, 1.26808e-06, 1.19545e-06, 0, 0
    17100, 1.25498e-06, 1.17458e-06, 0, 0
    17200, 1.24671e-06, 1.59906e-06, 0, 0
    17300, 1.24678e-06, 1.69859e-06, 0, 0
    17400, 1.24551e-06, 1.74756e-06, 0, 0
    17500, 1.2268e-06, 1.1353e-06, 0, 0
    17600, 1.21954e-06, 1.12661e-06, 0, 0
    17700, 1.20797e-06, 1.55825e-06, 0, 0
    17800, 1.20512e-06, 1.11066e-06, 0, 0
    17900, 1.19967e-06, 1.07973e-06, 0, 0
    18000, 1.19155e-06, 1.0741e-06, 0, 0
    18100, 1.19297e-06, 1.7182e-06, 0, 0
    18200, 1.1802e-06, 1.03821e-06, 0, 0
    18300, 1.16873e-06, 1.01686e-06, 0, 0
    18400, 1.16686e-06, 1.05051e-06, 0, 0
    18500, 1.16187e-06, 1.02933e-06, 0, 0
    18600, 1.15487e-06, 1.03965e-06, 0, 0
    18700, 1.14581e-06, 1.00795e-06, 0, 0
    18800, 1.15458e-06, 1.00075e-06, 0, 0
    18900, 1.1339e-06, 9.79878e-07, 0, 0
    19000, 1.13012e-06, 9.9602e-07, 0, 0
    19100, 1.12296e-06, 9.68383e-07, 0, 0
    19200, 1.11587e-06, 9.62622e-07, 0, 0
    19300, 1.1125e-06, 9.5634e-07, 0, 0
    19400, 1.10575e-06, 9.50635e-07, 0, 0
    19500, 1.09751e-06, 9.57516e-07, 0, 0
    19600, 1.0954e-06, 1.58357e-06, 0, 0
    19700, 1.08915e-06, 9.32349e-07, 0, 0
    19800, 1.08352e-06, 9.25943e-07, 0, 0
    19900, 1.08145e-06, 8.78129e-07, 0, 0
--> FOAM Warning : Max iterations reached within momentum loop
Moving the mesh to the deformed configuration

Max sigmaEq (von Mises stress) = 105097
ExecutionTime = 22.41 s  ClockTime = 23 s

Jacobian determinant max. 1.00086 min. 0.999346

Time = 2

Evolving solid solver
Solving the updated Lagrangian form of the momentum equation for DD
    Corr, res, relRes, matRes, iters
    100, 0.000126672, 0.00222244, 0, 0
    200, 3.95645e-05, 0.00112608, 0, 0
    300, 4.0072e-05, 0.00157712, 0, 0
    400, 3.87923e-05, 0.00175359, 0, 0
    500, 3.75746e-05, 0.00191386, 0, 0
    600, 3.85846e-05, 0.00210883, 0, 0
    700, 3.9872e-05, 0.00236188, 0, 0
    800, 4.14424e-05, 0.00270191, 0, 0
    900, 3.81485e-05, 0.00166154, 0, 0
    1000, 3.33608e-05, 0.000740634, 0, 0
    1100, 1.99261e-05, 0.000472361, 0, 0
    1200, 1.30226e-05, 0.000249326, 0, 0
    1300, 1.13668e-05, 0.000122767, 0, 0
    1400, 1.07605e-05, 0.000106476, 0, 0
    1500, 1.02683e-05, 0.000175795, 0, 0
    1600, 1.02453e-05, 0.000120664, 0, 0
    1700, 9.74657e-06, 8.66869e-05, 0, 0
    1800, 1.00147e-05, 6.95529e-05, 0, 0
    1900, 9.58973e-06, 0.000106139, 0, 0
    2000, 9.20928e-06, 0.000136822, 0, 0
    2100, 9.39483e-06, 7.12848e-05, 0, 0
    2200, 8.6897e-06, 0.000122838, 0, 0
    2300, 8.45852e-06, 9.80664e-05, 0, 0
    2400, 8.24824e-06, 5.53189e-05, 0, 0
    2500, 8.04694e-06, 5.48241e-05, 0, 0
    2600, 7.85501e-06, 5.35369e-05, 0, 0
    2700, 7.6723e-06, 5.17335e-05, 0, 0
    2800, 7.49747e-06, 4.93385e-05, 0, 0
    2900, 7.34458e-06, 4.64562e-05, 0, 0
    3000, 7.1922e-06, 4.25899e-05, 0, 0
    3100, 7.05943e-06, 3.92676e-05, 0, 0
    3200, 6.98219e-06, 3.92764e-05, 0, 0
    3300, 6.85215e-06, 9.12244e-05, 0, 0
    3400, 6.76235e-06, 8.49263e-05, 0, 0
    3500, 6.7993e-06, 4.29901e-05, 0, 0
    3600, 6.47983e-06, 8.23067e-05, 0, 0
    3700, 6.56168e-06, 4.25629e-05, 0, 0
    3800, 6.41061e-06, 4.14583e-05, 0, 0
    3900, 6.27063e-06, 3.53437e-05, 0, 0
    4000, 6.14658e-06, 3.01034e-05, 0, 0
    4100, 5.92961e-06, 3.07821e-05, 0, 0
    4200, 5.84011e-06, 2.95167e-05, 0, 0
    4300, 5.75508e-06, 2.81636e-05, 0, 0
    4400, 5.67528e-06, 2.69363e-05, 0, 0
    4500, 5.57894e-06, 2.63107e-05, 0, 0
    4600, 5.48702e-06, 2.5906e-05, 0, 0
    4700, 5.40942e-06, 2.52972e-05, 0, 0
    4800, 5.32379e-06, 2.48869e-05, 0, 0
    4900, 5.24485e-06, 2.41656e-05, 0, 0
    5000, 5.16789e-06, 2.37159e-05, 0, 0
    5100, 5.08953e-06, 2.30846e-05, 0, 0
    5200, 5.01733e-06, 2.26076e-05, 0, 0
    5300, 4.94692e-06, 2.21387e-05, 0, 0
    5400, 4.87875e-06, 2.17231e-05, 0, 0
    5500, 4.81178e-06, 2.11408e-05, 0, 0
    5600, 4.74848e-06, 2.04561e-05, 0, 0
    5700, 4.68685e-06, 1.97915e-05, 0, 0
    5800, 4.63053e-06, 1.95911e-05, 0, 0
    5900, 4.56859e-06, 3.38399e-05, 0, 0
    6000, 4.52563e-06, 4.21616e-05, 0, 0
    6100, 4.48068e-06, 4.37995e-05, 0, 0
    6200, 4.39086e-06, 4.38002e-05, 0, 0
    6300, 4.33366e-06, 4.12674e-05, 0, 0
    6400, 4.30398e-06, 4.14864e-05, 0, 0
    6500, 4.26508e-06, 4.09064e-05, 0, 0
    6600, 4.21701e-06, 4.01723e-05, 0, 0
    6700, 4.16756e-06, 1.67056e-05, 0, 0
    6800, 4.10737e-06, 2.73188e-05, 0, 0
    6900, 4.05261e-06, 1.66028e-05, 0, 0
    7000, 4.01368e-06, 1.62072e-05, 0, 0
    7100, 3.96682e-06, 1.58809e-05, 0, 0
    7200, 3.91959e-06, 1.54195e-05, 0, 0
    7300, 3.90381e-06, 1.49576e-05, 0, 0
    7400, 3.87776e-06, 1.74207e-05, 0, 0
    7500, 3.80581e-06, 1.50151e-05, 0, 0
    7600, 3.77666e-06, 1.46233e-05, 0, 0
    7700, 3.74025e-06, 2.4647e-05, 0, 0
    7800, 3.69958e-06, 3.55549e-05, 0, 0
    7900, 3.65118e-06, 1.40046e-05, 0, 0
    8000, 3.62673e-06, 1.48562e-05, 0, 0
    8100, 3.59144e-06, 1.30666e-05, 0, 0
    8200, 3.54006e-06, 1.32372e-05, 0, 0
    8300, 3.54233e-06, 1.77609e-05, 0, 0
    8400, 3.4733e-06, 1.3049e-05, 0, 0
    8500, 3.45658e-06, 2.36939e-05, 0, 0
    8600, 3.40755e-06, 1.26004e-05, 0, 0
    8700, 3.38815e-06, 2.28641e-05, 0, 0
    8800, 3.34237e-06, 1.22194e-05, 0, 0
    8900, 3.33606e-06, 1.54774e-05, 0, 0
    9000, 3.28209e-06, 1.18385e-05, 0, 0
    9100, 3.28533e-06, 1.58522e-05, 0, 0
    9200, 3.22054e-06, 1.12245e-05, 0, 0
    9300, 3.1845e-06, 2.02397e-05, 0, 0
    9400, 3.15052e-06, 1.10669e-05, 0, 0
    9500, 3.13371e-06, 1.09925e-05, 0, 0
    9600, 3.14023e-06, 1.48991e-05, 0, 0
    9700, 3.08123e-06, 1.03125e-05, 0, 0
    9800, 3.05177e-06, 1.06527e-05, 0, 0
    9900, 3.04647e-06, 2.71519e-05, 0, 0
    10000, 3.00301e-06, 9.89671e-06, 0, 0
    10100, 2.97109e-06, 1.01877e-05, 0, 0
    10200, 2.94072e-06, 9.66949e-06, 0, 0
    10300, 2.92037e-06, 9.95466e-06, 0, 0
    10400, 2.89958e-06, 9.38948e-06, 0, 0
    10500, 2.87165e-06, 9.74388e-06, 0, 0
    10600, 2.85025e-06, 9.238e-06, 0, 0
    10700, 2.85001e-06, 2.51859e-05, 0, 0
    10800, 2.80791e-06, 9.14152e-06, 0, 0
    10900, 2.80116e-06, 9.64288e-06, 0, 0
    11000, 2.76695e-06, 8.96992e-06, 0, 0
    11100, 2.73989e-06, 8.85697e-06, 0, 0
    11200, 2.73054e-06, 8.85643e-06, 0, 0
    11300, 2.70667e-06, 8.45768e-06, 0, 0
    11400, 2.69123e-06, 1.57064e-05, 0, 0
    11500, 2.67227e-06, 8.31718e-06, 0, 0
    11600, 2.69189e-06, 1.19283e-05, 0, 0
    11700, 2.63707e-06, 8.22341e-06, 0, 0
    11800, 2.63625e-06, 2.13872e-05, 0, 0
    11900, 2.6009e-06, 7.93232e-06, 0, 0
    12000, 2.60171e-06, 2.10357e-05, 0, 0
    12100, 2.56795e-06, 7.76876e-06, 0, 0
    12200, 2.56655e-06, 2.04521e-05, 0, 0
    12300, 2.53619e-06, 7.51694e-06, 0, 0
    12400, 2.53885e-06, 8.0252e-06, 0, 0
    12500, 2.50501e-06, 7.23802e-06, 0, 0
    12600, 2.48983e-06, 1.4007e-05, 0, 0
    12700, 2.47245e-06, 6.95252e-06, 0, 0
    12800, 2.45713e-06, 7.22955e-06, 0, 0
    12900, 2.43982e-06, 7.26868e-06, 0, 0
    13000, 2.42723e-06, 6.89983e-06, 0, 0
    13100, 2.43435e-06, 1.95994e-05, 0, 0
    13200, 2.39742e-06, 6.52086e-06, 0, 0
    13300, 2.3815e-06, 6.71055e-06, 0, 0
    13400, 2.406e-06, 1.00913e-05, 0, 0
    13500, 2.35257e-06, 6.3184e-06, 0, 0
    13600, 2.33889e-06, 6.47331e-06, 0, 0
    13700, 2.34391e-06, 6.74986e-06, 0, 0
    13800, 2.31463e-06, 6.06321e-06, 0, 0
    13900, 2.29951e-06, 6.20645e-06, 0, 0
    14000, 2.29162e-06, 1.09381e-05, 0, 0
    14100, 2.27728e-06, 5.90733e-06, 0, 0
    14200, 2.26112e-06, 6.03347e-06, 0, 0
    14300, 2.2555e-06, 1.14357e-05, 0, 0
    14400, 2.2393e-06, 5.67229e-06, 0, 0
    14500, 2.22455e-06, 5.79042e-06, 0, 0
    14600, 2.21699e-06, 5.91575e-06, 0, 0
    14700, 2.20838e-06, 5.79343e-06, 0, 0
    14800, 2.19283e-06, 5.56361e-06, 0, 0
    14900, 2.18159e-06, 5.66348e-06, 0, 0
    15000, 2.20456e-06, 8.71997e-06, 0, 0
    15100, 2.15453e-06, 5.31322e-06, 0, 0
    15200, 2.14586e-06, 5.4431e-06, 0, 0
    15300, 2.15502e-06, 1.61481e-05, 0, 0
    15400, 2.12127e-06, 5.10647e-06, 0, 0
    15500, 2.11205e-06, 5.23744e-06, 0, 0
    15600, 2.11768e-06, 1.13604e-05, 0, 0
    15700, 2.08925e-06, 4.93607e-06, 0, 0
    15800, 2.07977e-06, 5.04036e-06, 0, 0
    15900, 2.09778e-06, 1.59213e-05, 0, 0
    16000, 2.06081e-06, 4.74956e-06, 0, 0
    16100, 2.04778e-06, 4.84736e-06, 0, 0
    16200, 2.04272e-06, 4.98253e-06, 0, 0
    16300, 2.03869e-06, 5.24015e-06, 0, 0
    16400, 2.01755e-06, 4.57407e-06, 0, 0
    16500, 2.00798e-06, 4.66811e-06, 0, 0
    16600, 2.00527e-06, 4.85319e-06, 0, 0
    16700, 1.9955e-06, 4.64409e-06, 0, 0
    16800, 1.9787e-06, 4.38525e-06, 0, 0
    16900, 1.96925e-06, 4.48683e-06, 0, 0
    17000, 1.97036e-06, 4.57502e-06, 0, 0
    17100, 1.98962e-06, 8.80447e-06, 0, 0
    17200, 1.94423e-06, 4.16693e-06, 0, 0
    17300, 1.93119e-06, 4.1852e-06, 0, 0
    17400, 1.92172e-06, 4.2784e-06, 0, 0
    17500, 1.91984e-06, 4.43608e-06, 0, 0
    17600, 1.91024e-06, 4.19595e-06, 0, 0
    17700, 1.90543e-06, 3.97705e-06, 0, 0
    17800, 1.88977e-06, 3.99138e-06, 0, 0
    17900, 1.87573e-06, 4.07373e-06, 0, 0
    18000, 1.87011e-06, 3.30292e-06, 0, 0
    18100, 1.86736e-06, 8.14226e-06, 0, 0
    18200, 1.85963e-06, 3.99299e-06, 0, 0
    18300, 1.84586e-06, 3.78915e-06, 0, 0
    18400, 1.83353e-06, 3.77591e-06, 0, 0
    18500, 1.82488e-06, 3.19145e-06, 0, 0
    18600, 1.82078e-06, 3.97723e-06, 0, 0
    18700, 1.82086e-06, 3.309e-06, 0, 0
    18800, 1.80393e-06, 3.66057e-06, 0, 0
    18900, 1.79236e-06, 3.59617e-06, 0, 0
    19000, 1.78256e-06, 3.73501e-06, 0, 0
    19100, 1.7732e-06, 3.05444e-06, 0, 0
    19200, 1.77121e-06, 3.83122e-06, 0, 0
    19300, 1.76765e-06, 4.11443e-06, 0, 0
    19400, 1.75291e-06, 2.94468e-06, 0, 0
    19500, 1.74105e-06, 3.50349e-06, 0, 0
    19600, 1.73525e-06, 2.93156e-06, 0, 0
    19700, 1.73311e-06, 3.67327e-06, 0, 0
    19800, 1.73896e-06, 1.2344e-05, 0, 0
    19900, 1.73029e-06, 2.9882e-06, 0, 0
--> FOAM Warning : Max iterations reached within momentum loop
Moving the mesh to the deformed configuration

Max sigmaEq (von Mises stress) = 171628
ExecutionTime = 44.72 s  ClockTime = 45 s

Jacobian determinant max. 1.00122 min. 0.999209

Time = 3

Evolving solid solver
Solving the updated Lagrangian form of the momentum equation for DD
    Corr, res, relRes, matRes, iters
    100, 8.28261e-05, 0.0013925, 0, 0
    200, 4.71726e-05, 0.0029424, 0, 0
    300, 5.16465e-05, 0.00409386, 0, 0
    400, 5.89538e-05, 0.0022489, 0, 0
    500, 4.57838e-05, 0.00227766, 0, 0
    600, 2.98819e-05, 0.00126883, 0, 0
    700, 2.80902e-05, 0.00123772, 0, 0
    800, 1.3363e-05, 0.000468913, 0, 0
    900, 1.27081e-05, 0.000141069, 0, 0
    1000, 1.1893e-05, 0.000218889, 0, 0
    1100, 1.17695e-05, 0.00010237, 0, 0
    1200, 1.18574e-05, 0.000101353, 0, 0
    1300, 1.17345e-05, 0.00012832, 0, 0
    1400, 1.1623e-05, 0.000157568, 0, 0
    1500, 1.16534e-05, 8.97049e-05, 0, 0
    1600, 1.16848e-05, 8.92673e-05, 0, 0
    1700, 1.16617e-05, 9.20542e-05, 0, 0
    1800, 1.15095e-05, 8.43163e-05, 0, 0
    1900, 1.15124e-05, 7.12507e-05, 0, 0
    2000, 1.14559e-05, 6.67323e-05, 0, 0
    2100, 1.14061e-05, 7.71797e-05, 0, 0
    2200, 1.13876e-05, 6.44739e-05, 0, 0
    2300, 1.12645e-05, 6.55457e-05, 0, 0
    2400, 1.12701e-05, 6.45345e-05, 0, 0
    2500, 1.10471e-05, 4.98541e-05, 0, 0
    2600, 1.08646e-05, 4.78686e-05, 0, 0
    2700, 1.07335e-05, 4.70182e-05, 0, 0
    2800, 1.06091e-05, 4.71563e-05, 0, 0
    2900, 1.04872e-05, 4.7556e-05, 0, 0
    3000, 1.0432e-05, 5.07916e-05, 0, 0
    3100, 1.01738e-05, 9.66975e-05, 0, 0
    3200, 9.86518e-06, 4.34771e-05, 0, 0
    3300, 9.48692e-06, 4.25616e-05, 0, 0
    3400, 9.40169e-06, 4.83125e-05, 0, 0
    3500, 8.84137e-06, 3.45739e-05, 0, 0
    3600, 8.55493e-06, 3.50532e-05, 0, 0
    3700, 8.29341e-06, 3.53012e-05, 0, 0
    3800, 8.03803e-06, 3.49399e-05, 0, 0
    3900, 7.78994e-06, 3.38365e-05, 0, 0
    4000, 7.59051e-06, 3.12109e-05, 0, 0
    4100, 7.55679e-06, 4.97203e-05, 0, 0
    4200, 7.10604e-06, 8.23948e-05, 0, 0
    4300, 7.13383e-06, 4.05974e-05, 0, 0
    4400, 6.79679e-06, 2.83745e-05, 0, 0
    4500, 6.62703e-06, 2.69113e-05, 0, 0
    4600, 6.47209e-06, 2.60283e-05, 0, 0
    4700, 6.33865e-06, 2.53426e-05, 0, 0
    4800, 6.19834e-06, 2.40964e-05, 0, 0
    4900, 5.98822e-06, 6.00503e-05, 0, 0
    5000, 5.85483e-06, 7.17885e-05, 0, 0
    5100, 5.81636e-06, 2.46917e-05, 0, 0
    5200, 5.70839e-06, 2.39054e-05, 0, 0
    5300, 5.59276e-06, 2.19168e-05, 0, 0
    5400, 5.4772e-06, 2.11303e-05, 0, 0
    5500, 5.30499e-06, 5.64681e-05, 0, 0
    5600, 5.23384e-06, 2.20594e-05, 0, 0
    5700, 5.16796e-06, 2.25333e-05, 0, 0
    5800, 5.06874e-06, 2.01416e-05, 0, 0
    5900, 5.06403e-06, 3.26003e-05, 0, 0
    6000, 4.89643e-06, 2.03477e-05, 0, 0
    6100, 4.80612e-06, 2.0327e-05, 0, 0
    6200, 4.81172e-06, 3.33956e-05, 0, 0
    6300, 4.64449e-06, 2.09491e-05, 0, 0
    6400, 4.54749e-06, 1.91578e-05, 0, 0
    6500, 4.48204e-06, 1.91786e-05, 0, 0
    6600, 4.42726e-06, 1.82334e-05, 0, 0
    6700, 4.32703e-06, 1.88688e-05, 0, 0
    6800, 4.29275e-06, 1.7658e-05, 0, 0
    6900, 4.19886e-06, 1.82555e-05, 0, 0
    7000, 4.15559e-06, 1.69302e-05, 0, 0
    7100, 4.08217e-06, 1.75742e-05, 0, 0
    7200, 4.01929e-06, 1.62126e-05, 0, 0
    7300, 3.9765e-06, 1.68802e-05, 0, 0
    7400, 3.89458e-06, 1.73074e-05, 0, 0
    7500, 3.87368e-06, 1.66605e-05, 0, 0
    7600, 3.78775e-06, 4.26976e-05, 0, 0
    7700, 3.76706e-06, 1.55592e-05, 0, 0
    7800, 3.72697e-06, 1.58374e-05, 0, 0
    7900, 3.74689e-06, 2.75486e-05, 0, 0
    8000, 3.63921e-06, 1.47877e-05, 0, 0
    8100, 3.57978e-06, 1.51024e-05, 0, 0
    8200, 3.60503e-06, 2.6612e-05, 0, 0
    8300, 3.50624e-06, 1.42374e-05, 0, 0
    8400, 3.45362e-06, 1.43866e-05, 0, 0
    8500, 3.39319e-06, 4.20942e-05, 0, 0
    8600, 3.38121e-06, 1.34704e-05, 0, 0
    8700, 3.34091e-06, 1.38599e-05, 0, 0
    8800, 3.2723e-06, 3.74192e-05, 0, 0
    8900, 3.24529e-06, 1.26544e-05, 0, 0
    9000, 3.23007e-06, 1.35894e-05, 0, 0
    9100, 3.1736e-06, 1.29839e-05, 0, 0
    9200, 3.20715e-06, 2.37792e-05, 0, 0
    9300, 3.12147e-06, 1.20265e-05, 0, 0
    9400, 3.09035e-06, 1.27022e-05, 0, 0
    9500, 3.03612e-06, 1.23391e-05, 0, 0
    9600, 3.00105e-06, 3.34147e-05, 0, 0
    9700, 2.98626e-06, 1.11676e-05, 0, 0
    9800, 2.9645e-06, 1.20102e-05, 0, 0
    9900, 2.91794e-06, 1.16056e-05, 0, 0
    10000, 2.88616e-06, 1.15253e-05, 0, 0
    10100, 2.85419e-06, 1.14172e-05, 0, 0
    10200, 2.82245e-06, 1.12966e-05, 0, 0
    10300, 2.79302e-06, 1.11739e-05, 0, 0
    10400, 2.764e-06, 1.105e-05, 0, 0
    10500, 2.74444e-06, 1.07003e-05, 0, 0
    10600, 2.72133e-06, 1.04976e-05, 0, 0
    10700, 2.6976e-06, 1.03616e-05, 0, 0
    10800, 2.6741e-06, 1.02746e-05, 0, 0
    10900, 2.64988e-06, 1.01915e-05, 0, 0
    11000, 2.62682e-06, 1.0172e-05, 0, 0
    11100, 2.60307e-06, 1.00629e-05, 0, 0
    11200, 2.5789e-06, 9.80712e-06, 0, 0
    11300, 2.5565e-06, 9.29189e-06, 0, 0
    11400, 2.53222e-06, 9.07721e-06, 0, 0
    11500, 2.50572e-06, 9.16778e-06, 0, 0
    11600, 2.47883e-06, 8.80681e-06, 0, 0
    11700, 2.45393e-06, 8.61062e-06, 0, 0
    11800, 2.42916e-06, 9.75071e-06, 0, 0
    11900, 2.41167e-06, 2.89883e-05, 0, 0
    12000, 2.46086e-06, 1.91864e-05, 0, 0
    12100, 2.37655e-06, 8.89896e-06, 0, 0
    12200, 2.3581e-06, 6.6822e-06, 0, 0
    12300, 2.34158e-06, 8.4396e-06, 0, 0
    12400, 2.32505e-06, 8.32194e-06, 0, 0
    12500, 2.30869e-06, 8.26255e-06, 0, 0
    12600, 2.29154e-06, 8.15538e-06, 0, 0
    12700, 2.2756e-06, 8.13382e-06, 0, 0
    12800, 2.25913e-06, 8.06669e-06, 0, 0
    12900, 2.24319e-06, 8.0306e-06, 0, 0
    13000, 2.22677e-06, 7.93482e-06, 0, 0
    13100, 2.2101e-06, 7.78774e-06, 0, 0
    13200, 2.19381e-06, 7.56454e-06, 0, 0
    13300, 2.17737e-06, 7.31927e-06, 0, 0
    13400, 2.15578e-06, 7.07743e-06, 0, 0
    13500, 2.13788e-06, 8.90336e-06, 0, 0
    13600, 2.17938e-06, 1.70434e-05, 0, 0
    13700, 2.10753e-06, 5.72284e-06, 0, 0
    13800, 2.09549e-06, 5.66759e-06, 0, 0
    13900, 2.08229e-06, 5.62809e-06, 0, 0
    14000, 2.0708e-06, 5.51396e-06, 0, 0
    14100, 2.05868e-06, 6.89799e-06, 0, 0
    14200, 2.04485e-06, 7.05038e-06, 0, 0
    14300, 2.02431e-06, 5.35829e-06, 0, 0
    14400, 2.00718e-06, 5.49756e-06, 0, 0
    14500, 2.00313e-06, 5.35356e-06, 0, 0
    14600, 1.99255e-06, 6.70471e-06, 0, 0
    14700, 1.97849e-06, 6.50617e-06, 0, 0
    14800, 1.9679e-06, 6.35543e-06, 0, 0
    14900, 1.94955e-06, 5.25039e-06, 0, 0
    15000, 1.93788e-06, 5.1037e-06, 0, 0
    15100, 1.92806e-06, 7.85538e-06, 0, 0
    15200, 1.91356e-06, 5.03024e-06, 0, 0
    15300, 1.90352e-06, 4.97024e-06, 0, 0
    15400, 1.89378e-06, 4.86283e-06, 0, 0
    15500, 1.87919e-06, 6.5305e-06, 0, 0
    15600, 1.872e-06, 5.69468e-06, 0, 0
    15700, 1.85713e-06, 5.07353e-06, 0, 0
    15800, 1.84654e-06, 4.75571e-06, 0, 0
    15900, 1.82983e-06, 5.02106e-06, 0, 0
    16000, 1.82612e-06, 5.96003e-06, 0, 0
    16100, 1.81466e-06, 7.9726e-06, 0, 0
    16200, 1.80472e-06, 4.6903e-06, 0, 0
    16300, 1.79048e-06, 4.52562e-06, 0, 0
    16400, 1.78056e-06, 4.52347e-06, 0, 0
    16500, 1.77672e-06, 5.68797e-06, 0, 0
    16600, 1.76377e-06, 4.58336e-06, 0, 0
    16700, 1.75562e-06, 4.44053e-06, 0, 0
    16800, 1.74061e-06, 2.14535e-05, 0, 0
    16900, 1.73619e-06, 5.82466e-06, 0, 0
    17000, 1.72448e-06, 4.45038e-06, 0, 0
    17100, 1.7192e-06, 4.3708e-06, 0, 0
    17200, 1.70626e-06, 4.80711e-06, 0, 0
    17300, 1.69977e-06, 5.64789e-06, 0, 0
    17400, 1.68817e-06, 4.29943e-06, 0, 0
    17500, 1.68295e-06, 4.15351e-06, 0, 0
    17600, 1.72019e-06, 1.51841e-05, 0, 0
    17700, 1.66422e-06, 5.39524e-06, 0, 0
    17800, 1.65464e-06, 4.13786e-06, 0, 0
    17900, 1.64733e-06, 3.98466e-06, 0, 0
    18000, 1.63307e-06, 3.98753e-06, 0, 0
    18100, 1.62975e-06, 4.97572e-06, 0, 0
    18200, 1.62336e-06, 3.95514e-06, 0, 0
    18300, 1.61202e-06, 3.97408e-06, 0, 0
    18400, 1.60162e-06, 4.13897e-06, 0, 0
    18500, 1.59895e-06, 3.87651e-06, 0, 0
    18600, 1.59185e-06, 3.93824e-06, 0, 0
    18700, 1.57894e-06, 1.82476e-05, 0, 0
    18800, 1.575e-06, 3.79091e-06, 0, 0
    18900, 1.56877e-06, 3.77831e-06, 0, 0
    19000, 1.55639e-06, 1.81336e-05, 0, 0
    19100, 1.55261e-06, 3.70469e-06, 0, 0
    19200, 1.53865e-06, 3.54828e-06, 0, 0
    19300, 1.53346e-06, 3.5841e-06, 0, 0
    19400, 1.52677e-06, 3.64601e-06, 0, 0
    19500, 1.52054e-06, 3.57712e-06, 0, 0
    19600, 1.51742e-06, 3.54223e-06, 0, 0
    19700, 1.51016e-06, 3.58815e-06, 0, 0
    19800, 1.50042e-06, 3.69896e-06, 0, 0
    19900, 1.49298e-06, 3.47804e-06, 0, 0
--> FOAM Warning : Max iterations reached within momentum loop
Moving the mesh to the deformed configuration

Max sigmaEq (von Mises stress) = 230848
ExecutionTime = 66.72 s  ClockTime = 67 s

Jacobian determinant max. 1.00111 min. 0.999188

Time = 4

Evolving solid solver
Solving the updated Lagrangian form of the momentum equation for DD
    Corr, res, relRes, matRes, iters
    100, 6.93264e-05, 0.00312645, 0, 0
    200, 5.70714e-05, 0.00321274, 0, 0
    300, 5.07798e-05, 0.00259421, 0, 0
    400, 3.65987e-05, 0.00148436, 0, 0
    500, 3.4405e-05, 0.00236427, 0, 0
    600, 1.73068e-05, 0.000456402, 0, 0
    700, 1.33034e-05, 0.000261389, 0, 0
    800, 1.20806e-05, 0.000222328, 0, 0
    900, 1.13641e-05, 0.000211261, 0, 0
    1000, 1.08063e-05, 0.000196052, 0, 0
    1100, 1.04814e-05, 0.000182451, 0, 0
    1200, 1.0419e-05, 0.000167221, 0, 0
    1300, 1.05929e-05, 0.000190877, 0, 0
    1400, 9.95176e-06, 0.000101357, 0, 0
    1500, 9.36317e-06, 7.94559e-05, 0, 0
    1600, 8.84592e-06, 6.94369e-05, 0, 0
    1700, 8.52516e-06, 6.17281e-05, 0, 0
    1800, 8.20147e-06, 5.45351e-05, 0, 0
    1900, 7.93872e-06, 5.28291e-05, 0, 0
    2000, 7.6722e-06, 5.19409e-05, 0, 0
    2100, 7.42034e-06, 5.07697e-05, 0, 0
    2200, 7.17704e-06, 4.94885e-05, 0, 0
    2300, 6.94199e-06, 4.81223e-05, 0, 0
    2400, 6.73614e-06, 4.67097e-05, 0, 0
    2500, 6.54295e-06, 4.52748e-05, 0, 0
    2600, 6.35821e-06, 4.38338e-05, 0, 0
    2700, 6.18009e-06, 4.23987e-05, 0, 0
    2800, 6.00872e-06, 4.09783e-05, 0, 0
    2900, 5.84227e-06, 3.95787e-05, 0, 0
    3000, 5.68878e-06, 3.82049e-05, 0, 0
    3100, 5.54104e-06, 3.68602e-05, 0, 0
    3200, 5.3979e-06, 3.55472e-05, 0, 0
    3300, 5.25889e-06, 3.42683e-05, 0, 0
    3400, 5.12436e-06, 3.30228e-05, 0, 0
    3500, 4.99414e-06, 3.18125e-05, 0, 0
    3600, 4.86842e-06, 3.06386e-05, 0, 0
    3700, 4.74724e-06, 2.95021e-05, 0, 0
    3800, 4.62709e-06, 2.85389e-05, 0, 0
    3900, 4.53605e-06, 2.56005e-05, 0, 0
    4000, 4.41005e-06, 2.6496e-05, 0, 0
    4100, 4.30939e-06, 2.39285e-05, 0, 0
    4200, 4.21716e-06, 2.31221e-05, 0, 0
    4300, 4.07546e-06, 2.07013e-05, 0, 0
    4400, 3.99167e-06, 2.02296e-05, 0, 0
    4500, 3.90467e-06, 1.9589e-05, 0, 0
    4600, 3.82052e-06, 1.89664e-05, 0, 0
    4700, 3.74055e-06, 1.83659e-05, 0, 0
    4800, 3.66661e-06, 1.81448e-05, 0, 0
    4900, 3.59519e-06, 1.795e-05, 0, 0
    5000, 3.526e-06, 1.77503e-05, 0, 0
    5100, 3.45936e-06, 1.75467e-05, 0, 0
    5200, 3.39501e-06, 1.73399e-05, 0, 0
    5300, 3.33288e-06, 1.71307e-05, 0, 0
    5400, 3.27289e-06, 1.69198e-05, 0, 0
    5500, 3.21498e-06, 1.67078e-05, 0, 0
    5600, 3.1592e-06, 1.64951e-05, 0, 0
    5700, 3.10545e-06, 1.62823e-05, 0, 0
    5800, 3.06682e-06, 1.15002e-05, 0, 0
    5900, 3.01895e-06, 1.31294e-05, 0, 0
    6000, 2.95543e-06, 1.13705e-05, 0, 0
    6100, 2.91267e-06, 3.33927e-05, 0, 0
    6200, 2.8806e-06, 1.07898e-05, 0, 0
    6300, 2.81865e-06, 1.20865e-05, 0, 0
    6400, 2.80049e-06, 1.02868e-05, 0, 0
    6500, 2.74341e-06, 3.5848e-05, 0, 0
    6600, 2.70533e-06, 1.04653e-05, 0, 0
    6700, 2.66262e-06, 9.69949e-06, 0, 0
    6800, 2.62768e-06, 3.39965e-05, 0, 0
    6900, 2.58518e-06, 1.14743e-05, 0, 0
    7000, 2.55198e-06, 9.51365e-06, 0, 0
    7100, 2.51458e-06, 9.65178e-06, 0, 0
    7200, 2.48422e-06, 9.57785e-06, 0, 0
    7300, 2.45419e-06, 9.81934e-06, 0, 0
    7400, 2.42292e-06, 9.19677e-06, 0, 0
    7500, 2.38968e-06, 9.10924e-06, 0, 0
    7600, 2.36246e-06, 8.08114e-06, 0, 0
    7700, 2.33869e-06, 9.77945e-06, 0, 0
    7800, 2.31045e-06, 2.70318e-05, 0, 0
    7900, 2.35892e-06, 2.10556e-05, 0, 0
    8000, 2.26291e-06, 9.63644e-06, 0, 0
    8100, 2.23027e-06, 8.45351e-06, 0, 0
    8200, 2.20483e-06, 2.8068e-05, 0, 0
    8300, 2.19229e-06, 7.6681e-06, 0, 0
    8400, 2.1664e-06, 9.2374e-06, 0, 0
    8500, 2.13842e-06, 8.03104e-06, 0, 0
    8600, 2.11385e-06, 2.65196e-05, 0, 0
    8700, 2.09429e-06, 7.58536e-06, 0, 0
    8800, 2.07808e-06, 8.22176e-06, 0, 0
    8900, 2.05654e-06, 8.06474e-06, 0, 0
    9000, 2.03528e-06, 5.88964e-06, 0, 0
    9100, 2.07932e-06, 1.67668e-05, 0, 0
    9200, 2.00167e-06, 2.40831e-05, 0, 0
    9300, 1.97877e-06, 7.40943e-06, 0, 0
    9400, 1.9642e-06, 5.56501e-06, 0, 0
    9500, 1.95074e-06, 6.10035e-06, 0, 0
    9600, 1.93448e-06, 5.729e-06, 0, 0
    9700, 1.91295e-06, 7.53902e-06, 0, 0
    9800, 1.90053e-06, 8.55466e-06, 0, 0
    9900, 1.88229e-06, 7.72407e-06, 0, 0
    10000, 1.86507e-06, 6.85765e-06, 0, 0
    10100, 1.84755e-06, 5.13156e-06, 0, 0
    10200, 1.83759e-06, 5.60672e-06, 0, 0
    10300, 1.82308e-06, 5.02367e-06, 0, 0
    10400, 1.81412e-06, 7.13271e-06, 0, 0
    10500, 1.79166e-06, 5.14971e-06, 0, 0
    10600, 1.78712e-06, 5.22251e-06, 0, 0
    10700, 1.77112e-06, 6.86023e-06, 0, 0
    10800, 1.75446e-06, 5.12e-06, 0, 0
    10900, 1.74e-06, 4.73363e-06, 0, 0
    11000, 1.73995e-06, 7.07872e-06, 0, 0
    11100, 1.71731e-06, 4.80746e-06, 0, 0
    11200, 1.70409e-06, 4.96161e-06, 0, 0
    11300, 1.70195e-06, 6.50619e-06, 0, 0
    11400, 1.68217e-06, 4.68744e-06, 0, 0
    11500, 1.66929e-06, 4.67935e-06, 0, 0
    11600, 1.65662e-06, 4.50652e-06, 0, 0
    11700, 1.65496e-06, 5.05822e-06, 0, 0
    11800, 1.64281e-06, 6.01964e-06, 0, 0
    11900, 1.6224e-06, 2.22664e-05, 0, 0
    12000, 1.61462e-06, 4.23125e-06, 0, 0
    12100, 1.60554e-06, 4.2794e-06, 0, 0
    12200, 1.59897e-06, 4.26669e-06, 0, 0
    12300, 1.58862e-06, 4.25581e-06, 0, 0
    12400, 1.57912e-06, 4.53548e-06, 0, 0
    12500, 1.61117e-06, 1.44108e-05, 0, 0
    12600, 1.55534e-06, 4.33881e-06, 0, 0
    12700, 1.54925e-06, 4.19482e-06, 0, 0
    12800, 1.53961e-06, 4.12286e-06, 0, 0
    12900, 1.53211e-06, 5.20622e-06, 0, 0
    13000, 1.51706e-06, 4.02551e-06, 0, 0
    13100, 1.50904e-06, 4.08393e-06, 0, 0
    13200, 1.50113e-06, 3.86652e-06, 0, 0
    13300, 1.4962e-06, 3.86205e-06, 0, 0
    13400, 1.4873e-06, 3.85371e-06, 0, 0
    13500, 1.47931e-06, 3.85551e-06, 0, 0
    13600, 1.47117e-06, 3.80634e-06, 0, 0
    13700, 1.46437e-06, 4.96494e-06, 0, 0
    13800, 1.45473e-06, 3.7624e-06, 0, 0
    13900, 1.44722e-06, 4.00742e-06, 0, 0
    14000, 1.44781e-06, 5.93925e-06, 0, 0
    14100, 1.43083e-06, 4.07e-06, 0, 0
    14200, 1.41883e-06, 2.17697e-05, 0, 0
    14300, 1.41481e-06, 3.46231e-06, 0, 0
    14400, 1.41015e-06, 3.46459e-06, 0, 0
    14500, 1.40479e-06, 3.47691e-06, 0, 0
    14600, 1.39763e-06, 3.52252e-06, 0, 0
    14700, 1.39224e-06, 4.81012e-06, 0, 0
    14800, 1.38471e-06, 3.41785e-06, 0, 0
    14900, 1.37778e-06, 3.39193e-06, 0, 0
    15000, 1.37129e-06, 3.36591e-06, 0, 0
    15100, 1.36487e-06, 3.33963e-06, 0, 0
    15200, 1.35869e-06, 3.31568e-06, 0, 0
    15300, 1.35282e-06, 3.29009e-06, 0, 0
    15400, 1.34528e-06, 3.47719e-06, 0, 0
    15500, 1.33929e-06, 3.24871e-06, 0, 0
    15600, 1.33367e-06, 3.19966e-06, 0, 0
    15700, 1.32868e-06, 3.18304e-06, 0, 0
    15800, 1.32176e-06, 3.31459e-06, 0, 0
    15900, 1.3161e-06, 3.12786e-06, 0, 0
    16000, 1.31092e-06, 3.09653e-06, 0, 0
    16100, 1.30633e-06, 4.55999e-06, 0, 0
    16200, 1.29972e-06, 3.15667e-06, 0, 0
    16300, 1.29423e-06, 3.01634e-06, 0, 0
    16400, 1.28951e-06, 2.99654e-06, 0, 0
    16500, 1.28312e-06, 3.21251e-06, 0, 0
    16600, 1.27918e-06, 3.01152e-06, 0, 0
    16700, 1.27399e-06, 2.91369e-06, 0, 0
    16800, 1.26976e-06, 2.89951e-06, 0, 0
    16900, 1.26284e-06, 3.11863e-06, 0, 0
    17000, 1.25957e-06, 2.88114e-06, 0, 0
    17100, 1.25487e-06, 2.81769e-06, 0, 0
    17200, 1.25104e-06, 2.8051e-06, 0, 0
    17300, 1.24499e-06, 2.97822e-06, 0, 0
    17400, 1.24115e-06, 2.7655e-06, 0, 0
    17500, 1.23684e-06, 2.72677e-06, 0, 0
    17600, 1.23335e-06, 2.71329e-06, 0, 0
    17700, 1.22645e-06, 2.92403e-06, 0, 0
    17800, 1.22381e-06, 2.76025e-06, 0, 0
    17900, 1.2195e-06, 2.6695e-06, 0, 0
    18000, 1.21525e-06, 2.62559e-06, 0, 0
    18100, 1.22386e-06, 2.95664e-06, 0, 0
    18200, 1.21658e-06, 4.78018e-06, 0, 0
    18300, 1.20737e-06, 2.65275e-06, 0, 0
    18400, 1.19609e-06, 2.61026e-06, 0, 0
    18500, 1.19656e-06, 2.42034e-06, 0, 0
    18600, 1.19334e-06, 2.4305e-06, 0, 0
    18700, 1.18894e-06, 2.41091e-06, 0, 0
    18800, 1.18701e-06, 2.39459e-06, 0, 0
    18900, 1.18143e-06, 2.3884e-06, 0, 0
    19000, 1.17953e-06, 2.39849e-06, 0, 0
    19100, 1.17528e-06, 2.35334e-06, 0, 0
    19200, 1.17039e-06, 2.40231e-06, 0, 0
    19300, 1.16839e-06, 2.32527e-06, 0, 0
    19400, 1.1635e-06, 2.38299e-06, 0, 0
    19500, 1.16153e-06, 2.30196e-06, 0, 0
    19600, 1.15871e-06, 2.28141e-06, 0, 0
    19700, 1.15545e-06, 2.24046e-06, 0, 0
    19800, 1.15008e-06, 2.23578e-06, 0, 0
    19900, 1.14805e-06, 2.21404e-06, 0, 0
--> FOAM Warning : Max iterations reached within momentum loop
Moving the mesh to the deformed configuration

Max sigmaEq (von Mises stress) = 290438
ExecutionTime = 87.22 s  ClockTime = 87 s

Jacobian determinant max. 1.00084 min. 0.999135

Time = 5

Evolving solid solver
Solving the updated Lagrangian form of the momentum equation for DD
    Corr, res, relRes, matRes, iters
    100, 7.48235e-05, 0.0058866, 0, 0
    200, 6.34758e-05, 0.00537425, 0, 0
    300, 5.53525e-05, 0.00267774, 0, 0
    400, 4.05077e-05, 0.00306504, 0, 0
    500, 1.55373e-05, 0.00108688, 0, 0
    600, 1.04449e-05, 0.000809673, 0, 0
    700, 8.89287e-06, 0.000504317, 0, 0
    800, 8.01714e-06, 0.000276897, 0, 0
    900, 7.72113e-06, 0.000343435, 0, 0
    1000, 7.63714e-06, 0.000414685, 0, 0
    1100, 7.6365e-06, 0.000213861, 0, 0
    1200, 7.53741e-06, 0.000246021, 0, 0
    1300, 7.6272e-06, 0.000234831, 0, 0
    1400, 7.07484e-06, 0.000120046, 0, 0
    1500, 6.70007e-06, 9.99416e-05, 0, 0
    1600, 6.48779e-06, 7.76189e-05, 0, 0
    1700, 6.33913e-06, 6.95986e-05, 0, 0
    1800, 6.23024e-06, 6.66522e-05, 0, 0
    1900, 6.06533e-06, 5.05454e-05, 0, 0
    2000, 5.95149e-06, 4.67546e-05, 0, 0
    2100, 5.8374e-06, 4.33137e-05, 0, 0
    2200, 5.73713e-06, 4.15752e-05, 0, 0
    2300, 5.63507e-06, 3.89039e-05, 0, 0
    2400, 5.52225e-06, 3.73168e-05, 0, 0
    2500, 5.43863e-06, 3.61589e-05, 0, 0
    2600, 5.3116e-06, 3.95679e-05, 0, 0
    2700, 5.20737e-06, 3.79925e-05, 0, 0
    2800, 5.1054e-06, 3.67672e-05, 0, 0
    2900, 5.0043e-06, 3.56051e-05, 0, 0
    3000, 4.90433e-06, 3.44954e-05, 0, 0
    3100, 4.80581e-06, 3.34336e-05, 0, 0
    3200, 4.70902e-06, 3.24158e-05, 0, 0
    3300, 4.61408e-06, 3.14388e-05, 0, 0
    3400, 4.52104e-06, 3.04999e-05, 0, 0
    3500, 4.42997e-06, 2.95966e-05, 0, 0
    3600, 4.34094e-06, 2.87268e-05, 0, 0
    3700, 4.25502e-06, 2.78887e-05, 0, 0
    3800, 4.17138e-06, 2.70804e-05, 0, 0
    3900, 4.09042e-06, 2.63004e-05, 0, 0
    4000, 4.01845e-06, 2.55474e-05, 0, 0
    4100, 3.95127e-06, 2.48201e-05, 0, 0
    4200, 3.88649e-06, 2.41174e-05, 0, 0
    4300, 3.82315e-06, 2.35285e-05, 0, 0
    4400, 3.76119e-06, 2.32379e-05, 0, 0
    4500, 3.7006e-06, 2.2936e-05, 0, 0
    4600, 3.61567e-06, 1.78011e-05, 0, 0
    4700, 3.55918e-06, 1.72646e-05, 0, 0
    4800, 3.52664e-06, 1.87874e-05, 0, 0
    4900, 3.47068e-06, 1.84808e-05, 0, 0
    5000, 3.41812e-06, 1.79853e-05, 0, 0
    5100, 3.36874e-06, 1.75215e-05, 0, 0
    5200, 3.3217e-06, 1.70653e-05, 0, 0
    5300, 3.27281e-06, 1.66308e-05, 0, 0
    5400, 3.23026e-06, 1.5012e-05, 0, 0
    5500, 3.19314e-06, 1.9556e-05, 0, 0
    5600, 3.14108e-06, 1.44907e-05, 0, 0
    5700, 3.07946e-06, 1.42817e-05, 0, 0
    5800, 3.04144e-06, 1.40023e-05, 0, 0
    5900, 3.0149e-06, 1.38002e-05, 0, 0
    6000, 2.97162e-06, 1.49258e-05, 0, 0
    6100, 2.95005e-06, 1.68598e-05, 0, 0
    6200, 2.91224e-06, 1.64095e-05, 0, 0
    6300, 2.87407e-06, 1.29174e-05, 0, 0
    6400, 2.84084e-06, 1.27397e-05, 0, 0
    6500, 2.79299e-06, 1.33523e-05, 0, 0
    6600, 2.77875e-06, 1.53514e-05, 0, 0
    6700, 2.7303e-06, 1.28313e-05, 0, 0
    6800, 2.71729e-06, 1.48611e-05, 0, 0
    6900, 2.67378e-06, 1.15825e-05, 0, 0
    7000, 2.64143e-06, 1.15477e-05, 0, 0
    7100, 2.63299e-06, 1.39166e-05, 0, 0
    7200, 2.58858e-06, 1.16201e-05, 0, 0
    7300, 2.56521e-06, 8.87633e-06, 0, 0
    7400, 2.53949e-06, 8.76388e-06, 0, 0
    7500, 2.51641e-06, 1.12217e-05, 0, 0
    7600, 2.49272e-06, 8.52101e-06, 0, 0
    7700, 2.47013e-06, 8.41085e-06, 0, 0
    7800, 2.44695e-06, 8.2792e-06, 0, 0
    7900, 2.42627e-06, 1.08385e-05, 0, 0
    8000, 2.40785e-06, 9.8206e-06, 0, 0
    8100, 2.38343e-06, 9.68133e-06, 0, 0
    8200, 2.36664e-06, 9.6453e-06, 0, 0
    8300, 2.34144e-06, 7.84176e-06, 0, 0
    8400, 2.32042e-06, 7.71481e-06, 0, 0
    8500, 2.30475e-06, 9.26893e-06, 0, 0
    8600, 2.28264e-06, 7.48722e-06, 0, 0
    8700, 2.26354e-06, 7.43858e-06, 0, 0
    8800, 2.24539e-06, 9.00596e-06, 0, 0
    8900, 2.22634e-06, 7.25059e-06, 0, 0
    9000, 2.21049e-06, 8.73057e-06, 0, 0
    9100, 2.18825e-06, 9.16494e-06, 0, 0
    9200, 2.17314e-06, 8.59759e-06, 0, 0
    9300, 2.15446e-06, 6.83879e-06, 0, 0
    9400, 2.13783e-06, 9.28391e-06, 0, 0
    9500, 2.12158e-06, 6.67502e-06, 0, 0
    9600, 2.10558e-06, 6.57876e-06, 0, 0
    9700, 2.09349e-06, 8.10907e-06, 0, 0
    9800, 2.07419e-06, 6.43159e-06, 0, 0
    9900, 2.06009e-06, 6.42631e-06, 0, 0
    10000, 2.04868e-06, 9.88007e-06, 0, 0
    10100, 2.04421e-06, 9.75469e-06, 0, 0
    10200, 2.01633e-06, 8.40781e-06, 0, 0
    10300, 2.00297e-06, 6.11785e-06, 0, 0
    10400, 1.98889e-06, 6.03514e-06, 0, 0
    10500, 1.97478e-06, 6.04931e-06, 0, 0
    10600, 1.96384e-06, 5.75131e-06, 0, 0
    10700, 1.949e-06, 5.74615e-06, 0, 0
    10800, 1.93561e-06, 5.78169e-06, 0, 0
    10900, 1.93016e-06, 8.73496e-06, 0, 0
    11000, 1.90918e-06, 5.62958e-06, 0, 0
    11100, 1.89627e-06, 5.59565e-06, 0, 0
    11200, 1.88571e-06, 5.41435e-06, 0, 0
    11300, 1.8731e-06, 5.4629e-06, 0, 0
    11400, 1.86221e-06, 8.18304e-06, 0, 0
    11500, 1.84867e-06, 5.26051e-06, 0, 0
    11600, 1.83577e-06, 5.15212e-06, 0, 0
    11700, 1.82284e-06, 7.10282e-06, 0, 0
    11800, 1.81348e-06, 5.1222e-06, 0, 0
    11900, 1.80196e-06, 4.922e-06, 0, 0
    12000, 1.79274e-06, 4.94416e-06, 0, 0
    12100, 1.78114e-06, 4.93593e-06, 0, 0
    12200, 1.77197e-06, 4.79121e-06, 0, 0
    12300, 1.76052e-06, 4.83134e-06, 0, 0
    12400, 1.74943e-06, 4.67486e-06, 0, 0
    12500, 1.74109e-06, 4.5401e-06, 0, 0
    12600, 1.72959e-06, 4.53885e-06, 0, 0
    12700, 1.72265e-06, 4.43722e-06, 0, 0
    12800, 1.71117e-06, 4.51202e-06, 0, 0
    12900, 1.70269e-06, 4.49066e-06, 0, 0
    13000, 1.69335e-06, 7.12735e-06, 0, 0
    13100, 1.68461e-06, 4.29694e-06, 0, 0
    13200, 1.67747e-06, 4.22546e-06, 0, 0
    13300, 1.66905e-06, 4.1931e-06, 0, 0
    13400, 1.65868e-06, 4.11788e-06, 0, 0
    13500, 1.65152e-06, 3.99405e-06, 0, 0
    13600, 1.64392e-06, 4.03753e-06, 0, 0
    13700, 1.6363e-06, 3.95623e-06, 0, 0
    13800, 1.63015e-06, 3.84247e-06, 0, 0
    13900, 1.62035e-06, 3.9072e-06, 0, 0
    14000, 1.61342e-06, 3.86506e-06, 0, 0
    14100, 1.60631e-06, 3.79609e-06, 0, 0
    14200, 1.59528e-06, 5.98951e-06, 0, 0
    14300, 1.59194e-06, 3.69626e-06, 0, 0
    14400, 1.58085e-06, 5.93366e-06, 0, 0
    14500, 1.57753e-06, 3.62919e-06, 0, 0
    14600, 1.57028e-06, 3.60073e-06, 0, 0
    14700, 1.56285e-06, 3.58152e-06, 0, 0
    14800, 1.55739e-06, 5.71185e-06, 0, 0
    14900, 1.55634e-06, 6.00344e-06, 0, 0
    15000, 1.54308e-06, 3.45857e-06, 0, 0
    15100, 1.53757e-06, 3.3318e-06, 0, 0
    15200, 1.53139e-06, 3.29239e-06, 0, 0
    15300, 1.52423e-06, 5.72034e-06, 0, 0
    15400, 1.5164e-06, 3.34617e-06, 0, 0
    15500, 1.51124e-06, 3.29734e-06, 0, 0
    15600, 1.50388e-06, 3.19937e-06, 0, 0
    15700, 1.49986e-06, 3.18572e-06, 0, 0
    15800, 1.49362e-06, 3.17255e-06, 0, 0
    15900, 1.48656e-06, 3.10921e-06, 0, 0
    16000, 1.47804e-06, 3.1919e-06, 0, 0
    16100, 1.47348e-06, 3.06613e-06, 0, 0
    16200, 1.4702e-06, 3.09337e-06, 0, 0
    16300, 1.46454e-06, 3.07965e-06, 0, 0
    16400, 1.45856e-06, 3.04247e-06, 0, 0
    16500, 1.45164e-06, 2.97791e-06, 0, 0
    16600, 1.44319e-06, 2.99778e-06, 0, 0
    16700, 1.4404e-06, 3.00787e-06, 0, 0
    16800, 1.4372e-06, 2.9802e-06, 0, 0
    16900, 1.43076e-06, 2.91849e-06, 0, 0
    17000, 1.42497e-06, 2.95972e-06, 0, 0
    17100, 1.42115e-06, 2.8846e-06, 0, 0
    17200, 1.41523e-06, 2.86983e-06, 0, 0
    17300, 1.41141e-06, 4.80899e-06, 0, 0
    17400, 1.40578e-06, 2.85172e-06, 0, 0
    17500, 1.39973e-06, 2.87536e-06, 0, 0
    17600, 1.39639e-06, 2.82589e-06, 0, 0
    17700, 1.39053e-06, 2.84737e-06, 0, 0
    17800, 1.38711e-06, 2.80099e-06, 0, 0
    17900, 1.38134e-06, 2.79548e-06, 0, 0
    18000, 1.37796e-06, 2.77833e-06, 0, 0
    18100, 1.36894e-06, 2.7874e-06, 0, 0
    18200, 1.36759e-06, 2.77956e-06, 0, 0
    18300, 1.36369e-06, 2.73483e-06, 0, 0
    18400, 1.35991e-06, 2.72508e-06, 0, 0
    18500, 1.35517e-06, 2.71999e-06, 0, 0
    18600, 1.35111e-06, 2.70907e-06, 0, 0
    18700, 1.34673e-06, 4.55803e-06, 0, 0
    18800, 1.3429e-06, 2.71668e-06, 0, 0
    18900, 1.33857e-06, 2.70589e-06, 0, 0
    19000, 1.33399e-06, 2.69258e-06, 0, 0
    19100, 1.3295e-06, 2.6709e-06, 0, 0
    19200, 1.32574e-06, 2.66527e-06, 0, 0
    19300, 1.32195e-06, 2.65836e-06, 0, 0
    19400, 1.32391e-06, 3.73306e-06, 0, 0
    19500, 1.31315e-06, 2.60627e-06, 0, 0
    19600, 1.30576e-06, 2.62942e-06, 0, 0
    19700, 1.3044e-06, 2.59665e-06, 0, 0
    19800, 1.30194e-06, 2.59184e-06, 0, 0
    19900, 1.29865e-06, 2.58911e-06, 0, 0
--> FOAM Warning : Max iterations reached within momentum loop
Moving the mesh to the deformed configuration

Max sigmaEq (von Mises stress) = 351323
ExecutionTime = 108.09 s  ClockTime = 108 s

Jacobian determinant max. 1.00134 min. 0.999018

Time = 6

Evolving solid solver
Solving the updated Lagrangian form of the momentum equation for DD
    Corr, res, relRes, matRes, iters
    100, 9.00009e-05, 0.00498602, 0, 0
    200, 6.97476e-05, 0.00459549, 0, 0
    300, 6.63101e-05, 0.00273409, 0, 0
    400, 3.95571e-05, 0.00150028, 0, 0
    500, 4.10036e-05, 0.00259038, 0, 0
    600, 1.93726e-05, 0.000633408, 0, 0
    700, 1.44162e-05, 0.000191077, 0, 0
    800, 1.26508e-05, 0.000142836, 0, 0
    900, 1.17564e-05, 0.000183247, 0, 0
    1000, 1.12326e-05, 0.000190682, 0, 0
    1100, 1.09708e-05, 0.000162818, 0, 0
    1200, 1.11603e-05, 0.000129066, 0, 0
    1300, 1.10661e-05, 0.000125262, 0, 0
    1400, 1.06442e-05, 0.00010859, 0, 0
    1500, 1.07205e-05, 0.000102173, 0, 0
    1600, 1.07214e-05, 0.000107114, 0, 0
    1700, 1.1167e-05, 0.000126901, 0, 0
    1800, 1.08885e-05, 0.000103121, 0, 0
    1900, 1.08484e-05, 9.44763e-05, 0, 0
    2000, 1.08716e-05, 7.71951e-05, 0, 0
    2100, 1.07077e-05, 8.72811e-05, 0, 0
    2200, 1.05026e-05, 0.000152427, 0, 0
    2300, 1.06557e-05, 0.000116899, 0, 0
    2400, 1.00861e-05, 0.000140794, 0, 0
    2500, 9.8952e-06, 0.000139492, 0, 0
    2600, 9.71526e-06, 0.000133294, 0, 0
    2700, 9.89777e-06, 0.000100247, 0, 0
    2800, 9.44136e-06, 0.000124385, 0, 0
    2900, 9.35646e-06, 4.40599e-05, 0, 0
    3000, 9.23433e-06, 4.25548e-05, 0, 0
    3100, 9.09648e-06, 4.2063e-05, 0, 0
    3200, 8.97477e-06, 3.96204e-05, 0, 0
    3300, 8.86415e-06, 3.92272e-05, 0, 0
    3400, 8.7316e-06, 3.78949e-05, 0, 0
    3500, 8.61601e-06, 8.78242e-05, 0, 0
    3600, 8.48979e-06, 3.73595e-05, 0, 0
    3700, 8.36437e-06, 3.61995e-05, 0, 0
    3800, 8.2413e-06, 3.55786e-05, 0, 0
    3900, 8.12692e-06, 3.54166e-05, 0, 0
    4000, 8.00324e-06, 3.50139e-05, 0, 0
    4100, 7.94907e-06, 3.49315e-05, 0, 0
    4200, 7.83162e-06, 3.93193e-05, 0, 0
    4300, 7.71519e-06, 3.71737e-05, 0, 0
    4400, 7.58467e-06, 3.51453e-05, 0, 0
    4500, 7.46009e-06, 7.95556e-05, 0, 0
    4600, 7.57199e-06, 7.78513e-05, 0, 0
    4700, 7.2964e-06, 3.72832e-05, 0, 0
    4800, 7.14867e-06, 2.92305e-05, 0, 0
    4900, 7.22823e-06, 6.99113e-05, 0, 0
    5000, 6.95588e-06, 3.36704e-05, 0, 0
    5100, 6.99112e-06, 5.43256e-05, 0, 0
    5200, 6.75919e-06, 3.28557e-05, 0, 0
    5300, 6.65541e-06, 2.76886e-05, 0, 0
    5400, 6.56206e-06, 2.67751e-05, 0, 0
    5500, 6.51112e-06, 3.06702e-05, 0, 0
    5600, 6.55919e-06, 6.00276e-05, 0, 0
    5700, 6.29385e-06, 2.62075e-05, 0, 0
    5800, 6.21594e-06, 2.78966e-05, 0, 0
    5900, 6.13321e-06, 2.54168e-05, 0, 0
    6000, 6.03756e-06, 2.59877e-05, 0, 0
    6100, 6.0047e-06, 2.72892e-05, 0, 0
    6200, 5.90964e-06, 2.50022e-05, 0, 0
    6300, 5.82995e-06, 2.59767e-05, 0, 0
    6400, 5.79299e-06, 2.46265e-05, 0, 0
    6500, 5.72026e-06, 2.48467e-05, 0, 0
    6600, 5.61332e-06, 2.73665e-05, 0, 0
    6700, 5.56407e-06, 2.5016e-05, 0, 0
    6800, 5.48859e-06, 2.25959e-05, 0, 0
    6900, 5.42129e-06, 2.40431e-05, 0, 0
    7000, 5.39005e-06, 2.40028e-05, 0, 0
    7100, 5.34725e-06, 2.52559e-05, 0, 0
    7200, 5.23366e-06, 2.18971e-05, 0, 0
    7300, 5.18362e-06, 2.12435e-05, 0, 0
    7400, 5.13466e-06, 2.19458e-05, 0, 0
    7500, 5.06153e-06, 2.09358e-05, 0, 0
    7600, 5.0268e-06, 2.03163e-05, 0, 0
    7700, 4.97002e-06, 2.0491e-05, 0, 0
    7800, 4.9174e-06, 2.02303e-05, 0, 0
    7900, 4.85667e-06, 5.89949e-05, 0, 0
    8000, 4.83525e-06, 2.18005e-05, 0, 0
    8100, 4.7914e-06, 1.95261e-05, 0, 0
    8200, 4.73056e-06, 1.87324e-05, 0, 0
    8300, 4.65978e-06, 1.94637e-05, 0, 0
    8400, 4.61952e-06, 5.48762e-05, 0, 0
    8500, 4.57746e-06, 1.77754e-05, 0, 0
    8600, 4.56073e-06, 2.00593e-05, 0, 0
    8700, 4.47253e-06, 1.35548e-05, 0, 0
    8800, 4.48692e-06, 2.1138e-05, 0, 0
    8900, 4.40725e-06, 1.75239e-05, 0, 0
    9000, 4.46221e-06, 3.74608e-05, 0, 0
    9100, 4.31615e-06, 1.44858e-05, 0, 0
    9200, 4.31265e-06, 1.89496e-05, 0, 0
    9300, 4.22989e-06, 1.69352e-05, 0, 0
    9400, 4.18005e-06, 1.30388e-05, 0, 0
    9500, 4.18664e-06, 1.71406e-05, 0, 0
    9600, 4.17094e-06, 1.70251e-05, 0, 0
    9700, 4.10739e-06, 1.6715e-05, 0, 0
    9800, 4.04695e-06, 1.1975e-05, 0, 0
    9900, 4.01923e-06, 4.79205e-05, 0, 0
    10000, 3.97419e-06, 1.20703e-05, 0, 0
    10100, 3.94832e-06, 1.1893e-05, 0, 0
    10200, 3.9373e-06, 1.62639e-05, 0, 0
    10300, 3.87752e-06, 1.182e-05, 0, 0
    10400, 3.87671e-06, 1.57835e-05, 0, 0
    10500, 3.81309e-06, 1.1514e-05, 0, 0
    10600, 3.8052e-06, 1.5777e-05, 0, 0
    10700, 3.77379e-06, 1.49954e-05, 0, 0
    10800, 3.72548e-06, 1.13956e-05, 0, 0
    10900, 3.72336e-06, 1.51592e-05, 0, 0
    11000, 3.69273e-06, 1.54119e-05, 0, 0
    11100, 3.66011e-06, 1.08364e-05, 0, 0
    11200, 3.61147e-06, 1.10498e-05, 0, 0
    11300, 3.61056e-06, 1.35078e-05, 0, 0
    11400, 3.55792e-06, 1.08166e-05, 0, 0
    11500, 3.54938e-06, 1.46663e-05, 0, 0
    11600, 3.53048e-06, 1.47367e-05, 0, 0
    11700, 3.4926e-06, 1.02627e-05, 0, 0
    11800, 3.47347e-06, 1.28983e-05, 0, 0
    11900, 3.43169e-06, 1.02828e-05, 0, 0
    12000, 3.42976e-06, 1.41909e-05, 0, 0
    12100, 3.40026e-06, 1.29487e-05, 0, 0
    12200, 3.45595e-06, 2.77929e-05, 0, 0
    12300, 3.33453e-06, 9.99684e-06, 0, 0
    12400, 3.39504e-06, 2.70251e-05, 0, 0
    12500, 3.32837e-06, 1.27993e-05, 0, 0
    12600, 3.26815e-06, 9.75254e-06, 0, 0
    12700, 3.27482e-06, 1.28759e-05, 0, 0
    12800, 3.242e-06, 1.19483e-05, 0, 0
    12900, 3.20584e-06, 9.37576e-06, 0, 0
    13000, 3.18025e-06, 9.47839e-06, 0, 0
    13100, 3.17929e-06, 9.25421e-06, 0, 0
    13200, 3.1464e-06, 9.00115e-06, 0, 0
    13300, 3.11745e-06, 9.2142e-06, 0, 0
    13400, 3.1129e-06, 8.93654e-06, 0, 0
    13500, 3.07586e-06, 9.05547e-06, 0, 0
    13600, 3.09806e-06, 1.19359e-05, 0, 0
    13700, 3.05956e-06, 1.17262e-05, 0, 0
    13800, 3.01815e-06, 8.80418e-06, 0, 0
    13900, 3.01733e-06, 1.03206e-05, 0, 0
    14000, 2.9842e-06, 8.69267e-06, 0, 0
    14100, 2.97276e-06, 4.15504e-05, 0, 0
    14200, 2.95321e-06, 8.51145e-06, 0, 0
    14300, 2.94455e-06, 1.2825e-05, 0, 0
    14400, 2.91444e-06, 8.36192e-06, 0, 0
    14500, 2.90637e-06, 1.30021e-05, 0, 0
    14600, 2.88507e-06, 8.00039e-06, 0, 0
    14700, 2.86144e-06, 8.19791e-06, 0, 0
    14800, 2.85147e-06, 1.11881e-05, 0, 0
    14900, 2.89908e-06, 2.26457e-05, 0, 0
    15000, 2.81228e-06, 7.99343e-06, 0, 0
    15100, 2.81576e-06, 1.24498e-05, 0, 0
    15200, 2.7896e-06, 9.8497e-06, 0, 0
    15300, 2.76553e-06, 7.79683e-06, 0, 0
    15400, 2.76285e-06, 1.13502e-05, 0, 0
    15500, 2.73695e-06, 7.63393e-06, 0, 0
    15600, 2.73405e-06, 1.15053e-05, 0, 0
    15700, 2.70887e-06, 7.5354e-06, 0, 0
    15800, 2.69898e-06, 3.25038e-05, 0, 0
    15900, 2.68257e-06, 7.40887e-06, 0, 0
    16000, 2.66646e-06, 7.41452e-06, 0, 0
    16100, 2.65361e-06, 7.26619e-06, 0, 0
    16200, 2.63724e-06, 7.23971e-06, 0, 0
    16300, 2.62325e-06, 4.00003e-05, 0, 0
    16400, 2.6111e-06, 7.18073e-06, 0, 0
    16500, 2.59691e-06, 3.99507e-05, 0, 0
    16600, 2.58487e-06, 7.08113e-06, 0, 0
    16700, 2.63968e-06, 2.74664e-05, 0, 0
    16800, 2.55877e-06, 6.98037e-06, 0, 0
    16900, 2.55434e-06, 1.15052e-05, 0, 0
    17000, 2.53302e-06, 6.87584e-06, 0, 0
    17100, 2.53349e-06, 9.97286e-06, 0, 0
    17200, 2.50798e-06, 6.7718e-06, 0, 0
    17300, 2.50908e-06, 9.99459e-06, 0, 0
    17400, 2.48335e-06, 6.66676e-06, 0, 0
    17500, 2.48168e-06, 1.04911e-05, 0, 0
    17600, 2.45922e-06, 6.56373e-06, 0, 0
    17700, 2.45274e-06, 8.70323e-06, 0, 0
    17800, 2.43575e-06, 6.45853e-06, 0, 0
    17900, 2.42946e-06, 6.45171e-06, 0, 0
    18000, 2.41364e-06, 6.38201e-06, 0, 0
    18100, 2.4103e-06, 8.64147e-06, 0, 0
    18200, 2.39219e-06, 6.30249e-06, 0, 0
    18300, 2.39115e-06, 9.92734e-06, 0, 0
    18400, 2.37128e-06, 6.2171e-06, 0, 0
    18500, 2.37147e-06, 9.46698e-06, 0, 0
    18600, 2.35075e-06, 6.12679e-06, 0, 0
    18700, 2.34217e-06, 1.14418e-05, 0, 0
    18800, 2.3305e-06, 6.03248e-06, 0, 0
    18900, 2.39008e-06, 2.61512e-05, 0, 0
    19000, 2.31031e-06, 5.93568e-06, 0, 0
    19100, 2.29917e-06, 1.37001e-05, 0, 0
    19200, 2.29033e-06, 5.84275e-06, 0, 0
    19300, 2.27916e-06, 5.78802e-06, 0, 0
    19400, 2.27082e-06, 5.74838e-06, 0, 0
    19500, 2.25947e-06, 5.6999e-06, 0, 0
    19600, 2.25195e-06, 5.65537e-06, 0, 0
    19700, 2.24031e-06, 5.61253e-06, 0, 0
    19800, 2.23319e-06, 5.55476e-06, 0, 0
    19900, 2.2215e-06, 5.52797e-06, 0, 0
--> FOAM Warning : Max iterations reached within momentum loop
Moving the mesh to the deformed configuration

Max sigmaEq (von Mises stress) = 411351
ExecutionTime = 129.77 s  ClockTime = 130 s

Jacobian determinant max. 1.00186 min. 0.99905

Time = 7

Evolving solid solver
Solving the updated Lagrangian form of the momentum equation for DD
    Corr, res, relRes, matRes, iters
    100, 8.76464e-05, 0.00360946, 0, 0
    200, 6.30704e-05, 0.00445723, 0, 0
    300, 4.53852e-05, 0.00168597, 0, 0
    400, 3.42424e-05, 0.00243001, 0, 0
    500, 2.4423e-05, 0.000815252, 0, 0
    600, 1.92826e-05, 0.00034124, 0, 0
    700, 1.78298e-05, 0.000309026, 0, 0
    800, 1.72976e-05, 0.000262031, 0, 0
    900, 1.6645e-05, 0.000255651, 0, 0
    1000, 1.60744e-05, 0.000239436, 0, 0
    1100, 1.55614e-05, 0.000230962, 0, 0
    1200, 1.50045e-05, 0.000211525, 0, 0
    1300, 1.44629e-05, 0.000200211, 0, 0
    1400, 1.39859e-05, 0.0001892, 0, 0
    1500, 1.35077e-05, 0.000180488, 0, 0
    1600, 1.31077e-05, 0.000163483, 0, 0
    1700, 1.27161e-05, 0.000163287, 0, 0
    1800, 1.22448e-05, 0.000116552, 0, 0
    1900, 1.14336e-05, 9.06545e-05, 0, 0
    2000, 1.06349e-05, 7.88553e-05, 0, 0
    2100, 9.98569e-06, 6.30501e-05, 0, 0
    2200, 9.44107e-06, 5.5961e-05, 0, 0
    2300, 8.99922e-06, 5.39292e-05, 0, 0
    2400, 8.67394e-06, 5.26031e-05, 0, 0
    2500, 8.35999e-06, 4.58414e-05, 0, 0
    2600, 8.16317e-06, 4.48661e-05, 0, 0
    2700, 8.03906e-06, 4.38326e-05, 0, 0
    2800, 7.89377e-06, 4.19504e-05, 0, 0
    2900, 7.71811e-06, 4.03622e-05, 0, 0
    3000, 7.66845e-06, 4.317e-05, 0, 0
    3100, 7.53577e-06, 4.19986e-05, 0, 0
    3200, 7.40691e-06, 4.05986e-05, 0, 0
    3300, 7.28069e-06, 3.92225e-05, 0, 0
    3400, 7.15863e-06, 3.78786e-05, 0, 0
    3500, 7.03982e-06, 3.65788e-05, 0, 0
    3600, 6.92269e-06, 3.53217e-05, 0, 0
    3700, 6.80905e-06, 3.41081e-05, 0, 0
    3800, 6.69876e-06, 3.29378e-05, 0, 0
    3900, 6.59093e-06, 3.18102e-05, 0, 0
    4000, 6.48581e-06, 3.07245e-05, 0, 0
    4100, 6.38201e-06, 2.96793e-05, 0, 0
    4200, 6.27971e-06, 2.86736e-05, 0, 0
    4300, 6.1789e-06, 2.77058e-05, 0, 0
    4400, 6.07992e-06, 2.67745e-05, 0, 0
    4500, 5.98229e-06, 2.58783e-05, 0, 0
    4600, 5.88674e-06, 2.50158e-05, 0, 0
    4700, 5.79365e-06, 2.41855e-05, 0, 0
    4800, 5.70231e-06, 2.3386e-05, 0, 0
    4900, 5.61316e-06, 2.26161e-05, 0, 0
    5000, 5.52532e-06, 2.18745e-05, 0, 0
    5100, 5.43899e-06, 2.11599e-05, 0, 0
    5200, 5.35432e-06, 2.04712e-05, 0, 0
    5300, 5.27166e-06, 1.98073e-05, 0, 0
    5400, 5.19083e-06, 1.91672e-05, 0, 0
    5500, 5.11136e-06, 1.85498e-05, 0, 0
    5600, 5.03335e-06, 1.79541e-05, 0, 0
    5700, 4.95728e-06, 1.74815e-05, 0, 0
    5800, 4.88278e-06, 1.70581e-05, 0, 0
    5900, 4.8098e-06, 1.6673e-05, 0, 0
    6000, 4.73862e-06, 1.62964e-05, 0, 0
    6100, 4.66929e-06, 1.59281e-05, 0, 0
    6200, 4.6018e-06, 1.55679e-05, 0, 0
    6300, 4.53619e-06, 1.52158e-05, 0, 0
    6400, 4.47232e-06, 1.48716e-05, 0, 0
    6500, 4.40987e-06, 1.45351e-05, 0, 0
    6600, 4.3177e-06, 1.13157e-05, 0, 0
    6700, 4.28549e-06, 1.44664e-05, 0, 0
    6800, 4.2039e-06, 1.58053e-05, 0, 0
    6900, 4.14548e-06, 1.49648e-05, 0, 0
    7000, 4.09405e-06, 1.35162e-05, 0, 0
    7100, 4.04187e-06, 1.54616e-05, 0, 0
    7200, 3.9989e-06, 1.05023e-05, 0, 0
    7300, 3.96677e-06, 1.3154e-05, 0, 0
    7400, 3.91578e-06, 1.27953e-05, 0, 0
    7500, 3.83472e-06, 1.43446e-05, 0, 0
    7600, 3.79073e-06, 1.45473e-05, 0, 0
    7700, 3.74729e-06, 9.97722e-06, 0, 0
    7800, 3.72869e-06, 1.2226e-05, 0, 0
    7900, 3.65688e-06, 9.77986e-06, 0, 0
    8000, 3.64033e-06, 1.19383e-05, 0, 0
    8100, 3.57014e-06, 9.56084e-06, 0, 0
    8200, 3.55442e-06, 1.15869e-05, 0, 0
    8300, 3.50182e-06, 9.1462e-06, 0, 0
    8400, 3.44712e-06, 9.25072e-06, 0, 0
    8500, 3.40454e-06, 1.38119e-05, 0, 0
    8600, 3.37181e-06, 9.10086e-06, 0, 0
    8700, 3.33267e-06, 1.31996e-05, 0, 0
    8800, 3.29683e-06, 8.75713e-06, 0, 0
    8900, 3.26306e-06, 1.38622e-05, 0, 0
    9000, 3.22232e-06, 1.0689e-05, 0, 0
    9100, 3.19926e-06, 1.09371e-05, 0, 0
    9200, 3.16318e-06, 8.5118e-06, 0, 0
    9300, 3.12135e-06, 1.11055e-05, 0, 0
    9400, 3.15555e-06, 2.23181e-05, 0, 0
    9500, 3.0591e-06, 8.29692e-06, 0, 0
    9600, 3.08222e-06, 9.54568e-06, 0, 0
    9700, 2.99644e-06, 8.08952e-06, 0, 0
    9800, 2.97921e-06, 8.47583e-06, 0, 0
    9900, 2.95154e-06, 7.94322e-06, 0, 0
    10000, 2.90994e-06, 9.47938e-06, 0, 0
    10100, 2.89696e-06, 8.13076e-06, 0, 0
    10200, 2.85394e-06, 7.63406e-06, 0, 0
    10300, 2.82878e-06, 7.8634e-06, 0, 0
    10400, 2.80192e-06, 7.37788e-06, 0, 0
    10500, 2.77307e-06, 7.32462e-06, 0, 0
    10600, 2.75107e-06, 1.2104e-05, 0, 0
    10700, 2.72368e-06, 7.00274e-06, 0, 0
    10800, 2.70552e-06, 1.15005e-05, 0, 0
    10900, 2.67433e-06, 5.32088e-06, 0, 0
    11000, 2.65161e-06, 7.44296e-06, 0, 0
    11100, 2.62935e-06, 7.3268e-06, 0, 0
    11200, 2.60352e-06, 6.98927e-06, 0, 0
    11300, 2.59311e-06, 7.9429e-06, 0, 0
    11400, 2.5593e-06, 6.65475e-06, 0, 0
    11500, 2.54353e-06, 8.36322e-06, 0, 0
    11600, 2.51411e-06, 6.11784e-06, 0, 0
    11700, 2.50335e-06, 2.06942e-05, 0, 0
    11800, 2.47681e-06, 4.89079e-06, 0, 0
    11900, 2.46112e-06, 1.85765e-05, 0, 0
    12000, 2.43555e-06, 6.50611e-06, 0, 0
    12100, 2.41389e-06, 4.73445e-06, 0, 0
    12200, 2.40273e-06, 1.03535e-05, 0, 0
    12300, 2.37647e-06, 6.35831e-06, 0, 0
    12400, 2.3581e-06, 7.95665e-06, 0, 0
    12500, 2.33903e-06, 4.69332e-06, 0, 0
    12600, 2.32204e-06, 4.5893e-06, 0, 0
    12700, 2.3103e-06, 7.32496e-06, 0, 0
    12800, 2.28702e-06, 4.44466e-06, 0, 0
    12900, 2.27513e-06, 4.63558e-06, 0, 0
    13000, 2.25206e-06, 5.99929e-06, 0, 0
    13100, 2.23896e-06, 4.49241e-06, 0, 0
    13200, 2.22303e-06, 7.42385e-06, 0, 0
    13300, 2.20389e-06, 4.50099e-06, 0, 0
    13400, 2.19442e-06, 4.4438e-06, 0, 0
    13500, 2.17848e-06, 6.36637e-06, 0, 0
    13600, 2.16197e-06, 4.37398e-06, 0, 0
    13700, 2.14647e-06, 4.30364e-06, 0, 0
    13800, 2.12829e-06, 5.78618e-06, 0, 0
    13900, 2.11896e-06, 4.28165e-06, 0, 0
    14000, 2.1046e-06, 4.37594e-06, 0, 0
    14100, 2.09286e-06, 4.24241e-06, 0, 0
    14200, 2.08051e-06, 4.34476e-06, 0, 0
    14300, 2.06918e-06, 2.00064e-05, 0, 0
    14400, 2.04939e-06, 4.04972e-06, 0, 0
    14500, 2.03678e-06, 4.3802e-06, 0, 0
    14600, 2.02363e-06, 4.00545e-06, 0, 0
    14700, 2.01281e-06, 6.36478e-06, 0, 0
    14800, 2.00033e-06, 3.94887e-06, 0, 0
    14900, 1.98958e-06, 5.60494e-06, 0, 0
    15000, 1.97792e-06, 4.00146e-06, 0, 0
    15100, 1.96661e-06, 3.92049e-06, 0, 0
    15200, 1.95552e-06, 3.89701e-06, 0, 0
    15300, 1.94005e-06, 3.80042e-06, 0, 0
    15400, 1.92838e-06, 3.90629e-06, 0, 0
    15500, 1.91499e-06, 3.82476e-06, 0, 0
    15600, 1.90485e-06, 4.94755e-06, 0, 0
    15700, 1.89744e-06, 3.75497e-06, 0, 0
    15800, 1.88435e-06, 1.36446e-05, 0, 0
    15900, 1.90589e-06, 1.28187e-05, 0, 0
    16000, 1.8681e-06, 3.67993e-06, 0, 0
    16100, 1.85799e-06, 3.63133e-06, 0, 0
    16200, 1.84647e-06, 3.63744e-06, 0, 0
    16300, 1.83627e-06, 3.84929e-06, 0, 0
    16400, 1.82842e-06, 3.60131e-06, 0, 0
    16500, 1.8189e-06, 3.51772e-06, 0, 0
    16600, 1.8168e-06, 3.36669e-06, 0, 0
    16700, 1.80039e-06, 3.49843e-06, 0, 0
    16800, 1.79089e-06, 3.3793e-06, 0, 0
    16900, 1.78249e-06, 3.44123e-06, 0, 0
    17000, 1.77348e-06, 3.39316e-06, 0, 0
    17100, 1.76446e-06, 3.39163e-06, 0, 0
    17200, 1.75608e-06, 3.32542e-06, 0, 0
    17300, 1.74755e-06, 3.34379e-06, 0, 0
    17400, 1.73917e-06, 3.2682e-06, 0, 0
    17500, 1.73036e-06, 3.26769e-06, 0, 0
    17600, 1.72136e-06, 3.28153e-06, 0, 0
    17700, 1.7126e-06, 5.61912e-06, 0, 0
    17800, 1.70445e-06, 3.20326e-06, 0, 0
    17900, 1.69955e-06, 3.18953e-06, 0, 0
    18000, 1.693e-06, 3.20124e-06, 0, 0
    18100, 1.68596e-06, 3.2032e-06, 0, 0
    18200, 1.67673e-06, 3.1866e-06, 0, 0
    18300, 1.66964e-06, 3.12657e-06, 0, 0
    18400, 1.66247e-06, 3.10916e-06, 0, 0
    18500, 1.65464e-06, 3.0693e-06, 0, 0
    18600, 1.64867e-06, 3.0779e-06, 0, 0
    18700, 1.64013e-06, 5.01645e-06, 0, 0
    18800, 1.63463e-06, 2.99859e-06, 0, 0
    18900, 1.62381e-06, 2.87608e-06, 0, 0
    19000, 1.61736e-06, 2.97297e-06, 0, 0
    19100, 1.61188e-06, 2.9394e-06, 0, 0
    19200, 1.60566e-06, 2.87754e-06, 0, 0
    19300, 1.59966e-06, 3.00546e-06, 0, 0
    19400, 1.59355e-06, 3.10884e-06, 0, 0
    19500, 1.58659e-06, 1.31832e-05, 0, 0
    19600, 1.58755e-06, 2.87434e-06, 0, 0
    19700, 1.57102e-06, 2.75886e-06, 0, 0
    19800, 1.56678e-06, 2.76295e-06, 0, 0
    19900, 1.56187e-06, 2.77109e-06, 0, 0
--> FOAM Warning : Max iterations reached within momentum loop
Moving the mesh to the deformed configuration

Max sigmaEq (von Mises stress) = 477396
ExecutionTime = 152.5 s  ClockTime = 153 s

Jacobian determinant max. 1.00121 min. 0.998932

Time = 8

Evolving solid solver
Solving the updated Lagrangian form of the momentum equation for DD
    Corr, res, relRes, matRes, iters
    100, 5.14954e-05, 0.00600484, 0, 0
    200, 4.37375e-05, 0.00429531, 0, 0
    300, 2.07504e-05, 0.00143257, 0, 0
    400, 9.21372e-06, 0.000981854, 0, 0
    500, 7.24067e-06, 0.000407399, 0, 0
    600, 6.54435e-06, 0.000505276, 0, 0
    700, 6.17193e-06, 0.000366616, 0, 0
    800, 6.19616e-06, 0.000434294, 0, 0
    900, 6.19274e-06, 0.000322265, 0, 0
    1000, 6.06804e-06, 0.000321588, 0, 0
    1100, 6.02124e-06, 0.000316815, 0, 0
    1200, 6.12465e-06, 0.000282155, 0, 0
    1300, 6.00176e-06, 0.000285008, 0, 0
    1400, 5.46059e-06, 0.000129014, 0, 0
    1500, 5.30077e-06, 9.71298e-05, 0, 0
    1600, 5.24724e-06, 8.63008e-05, 0, 0
    1700, 5.18359e-06, 7.57868e-05, 0, 0
    1800, 5.11718e-06, 7.02308e-05, 0, 0
    1900, 5.04978e-06, 6.5674e-05, 0, 0
    2000, 4.98303e-06, 6.18189e-05, 0, 0
    2100, 4.91737e-06, 5.84979e-05, 0, 0
    2200, 4.85313e-06, 5.53873e-05, 0, 0
    2300, 4.78822e-06, 5.25878e-05, 0, 0
    2400, 4.7325e-06, 5.29027e-05, 0, 0
    2500, 4.69106e-06, 5.14348e-05, 0, 0
    2600, 4.64982e-06, 4.59379e-05, 0, 0
    2700, 4.58729e-06, 4.79354e-05, 0, 0
    2800, 4.55537e-06, 4.38181e-05, 0, 0
    2900, 4.50491e-06, 4.64027e-05, 0, 0
    3000, 4.45591e-06, 4.47722e-05, 0, 0
    3100, 4.42651e-06, 4.48431e-05, 0, 0
    3200, 4.39424e-06, 3.21831e-05, 0, 0
    3300, 4.34344e-06, 4.24448e-05, 0, 0
    3400, 4.30515e-06, 4.15745e-05, 0, 0
    3500, 4.27533e-06, 4.10129e-05, 0, 0
    3600, 4.23249e-06, 3.98249e-05, 0, 0
    3700, 4.19585e-06, 3.90973e-05, 0, 0
    3800, 4.15949e-06, 3.85174e-05, 0, 0
    3900, 4.12839e-06, 2.66707e-05, 0, 0
    4000, 4.07745e-06, 3.61451e-05, 0, 0
    4100, 4.05194e-06, 2.56384e-05, 0, 0
    4200, 4.01374e-06, 3.55583e-05, 0, 0
    4300, 3.98781e-06, 2.77196e-05, 0, 0
    4400, 3.9433e-06, 2.43721e-05, 0, 0
    4500, 3.92064e-06, 2.42246e-05, 0, 0
    4600, 3.87992e-06, 3.31031e-05, 0, 0
    4700, 3.85285e-06, 2.36231e-05, 0, 0
    4800, 3.81421e-06, 2.32717e-05, 0, 0
    4900, 3.78116e-06, 2.13758e-05, 0, 0
    5000, 3.74981e-06, 2.09328e-05, 0, 0
    5100, 3.72848e-06, 2.28451e-05, 0, 0
    5200, 3.68606e-06, 2.2377e-05, 0, 0
    5300, 3.65219e-06, 1.97835e-05, 0, 0
    5400, 3.61902e-06, 1.94203e-05, 0, 0
    5500, 3.59222e-06, 1.91448e-05, 0, 0
    5600, 3.57226e-06, 2.1659e-05, 0, 0
    5700, 3.52959e-06, 2.11159e-05, 0, 0
    5800, 3.49732e-06, 2.6876e-05, 0, 0
    5900, 3.46913e-06, 1.78323e-05, 0, 0
    6000, 3.44531e-06, 1.76202e-05, 0, 0
    6100, 3.41547e-06, 1.73229e-05, 0, 0
    6200, 3.38743e-06, 1.711e-05, 0, 0
    6300, 3.36846e-06, 1.99869e-05, 0, 0
    6400, 3.34021e-06, 1.66433e-05, 0, 0
    6500, 3.30553e-06, 2.54084e-05, 0, 0
    6600, 3.28074e-06, 1.60126e-05, 0, 0
    6700, 3.25575e-06, 1.58956e-05, 0, 0
    6800, 3.2439e-06, 2.51724e-05, 0, 0
    6900, 3.21996e-06, 2.34768e-05, 0, 0
    7000, 3.19482e-06, 2.37474e-05, 0, 0
    7100, 3.15772e-06, 1.47815e-05, 0, 0
    7200, 3.13762e-06, 2.22969e-05, 0, 0
    7300, 3.12771e-06, 2.38559e-05, 0, 0
    7400, 3.08849e-06, 1.40443e-05, 0, 0
    7500, 3.06595e-06, 1.39202e-05, 0, 0
    7600, 3.05516e-06, 2.32647e-05, 0, 0
    7700, 3.03454e-06, 2.29523e-05, 0, 0
    7800, 3.00082e-06, 1.34822e-05, 0, 0
    7900, 2.98018e-06, 1.31897e-05, 0, 0
    8000, 2.9551e-06, 2.13088e-05, 0, 0
    8100, 2.93808e-06, 1.30131e-05, 0, 0
    8200, 2.93033e-06, 2.23421e-05, 0, 0
    8300, 2.90629e-06, 1.2629e-05, 0, 0
    8400, 2.88998e-06, 2.12991e-05, 0, 0
    8500, 2.85561e-06, 1.22394e-05, 0, 0
    8600, 2.84558e-06, 2.09672e-05, 0, 0
    8700, 2.81889e-06, 1.19629e-05, 0, 0
    8800, 2.79793e-06, 1.19007e-05, 0, 0
    8900, 2.78956e-06, 2.03081e-05, 0, 0
    9000, 2.76206e-06, 1.15257e-05, 0, 0
    9100, 2.74369e-06, 1.13995e-05, 0, 0
    9200, 2.73587e-06, 1.99251e-05, 0, 0
    9300, 2.72218e-06, 2.08413e-05, 0, 0
    9400, 2.69164e-06, 1.10142e-05, 0, 0
    9500, 2.67362e-06, 1.72524e-05, 0, 0
    9600, 2.65676e-06, 1.10481e-05, 0, 0
    9700, 2.64035e-06, 1.09886e-05, 0, 0
    9800, 2.62407e-06, 1.08902e-05, 0, 0
    9900, 2.60742e-06, 1.08497e-05, 0, 0
    10000, 2.59382e-06, 1.59069e-05, 0, 0
    10100, 2.5769e-06, 1.01871e-05, 0, 0
    10200, 2.55981e-06, 1.03398e-05, 0, 0
    10300, 2.54418e-06, 1.52903e-05, 0, 0
    10400, 2.53056e-06, 1.00872e-05, 0, 0
    10500, 2.51473e-06, 1.01914e-05, 0, 0
    10600, 2.49877e-06, 1.53462e-05, 0, 0
    10700, 2.48599e-06, 9.64174e-06, 0, 0
    10800, 2.47003e-06, 1.48084e-05, 0, 0
    10900, 2.45563e-06, 1.47272e-05, 0, 0
    11000, 2.44276e-06, 1.43471e-05, 0, 0
    11100, 2.43274e-06, 9.39057e-06, 0, 0
    11200, 2.41391e-06, 9.36354e-06, 0, 0
    11300, 2.40088e-06, 1.55994e-05, 0, 0
    11400, 2.38827e-06, 9.09936e-06, 0, 0
    11500, 2.37506e-06, 9.00061e-06, 0, 0
    11600, 2.37308e-06, 1.7841e-05, 0, 0
    11700, 2.34839e-06, 8.75221e-06, 0, 0
    11800, 2.33559e-06, 1.30714e-05, 0, 0
    11900, 2.32258e-06, 1.27829e-05, 0, 0
    12000, 2.31018e-06, 1.25939e-05, 0, 0
    12100, 2.29825e-06, 8.5427e-06, 0, 0
    12200, 2.28502e-06, 1.29856e-05, 0, 0
    12300, 2.27358e-06, 8.4125e-06, 0, 0
    12400, 2.26843e-06, 1.52812e-05, 0, 0
    12500, 2.2494e-06, 8.31954e-06, 0, 0
    12600, 2.23825e-06, 8.2396e-06, 0, 0
    12700, 2.22648e-06, 8.18715e-06, 0, 0
    12800, 2.21489e-06, 8.14492e-06, 0, 0
    12900, 2.2038e-06, 8.11764e-06, 0, 0
    13000, 2.19238e-06, 8.08974e-06, 0, 0
    13100, 2.18119e-06, 8.05543e-06, 0, 0
    13200, 2.17042e-06, 8.02017e-06, 0, 0
    13300, 2.15853e-06, 7.96164e-06, 0, 0
    13400, 2.14976e-06, 7.97215e-06, 0, 0
    13500, 2.13764e-06, 7.91076e-06, 0, 0
    13600, 2.12691e-06, 7.8328e-06, 0, 0
    13700, 2.11659e-06, 7.80179e-06, 0, 0
    13800, 2.10658e-06, 7.76676e-06, 0, 0
    13900, 2.09652e-06, 7.72929e-06, 0, 0
    14000, 2.08644e-06, 7.69256e-06, 0, 0
    14100, 2.07645e-06, 7.6566e-06, 0, 0
    14200, 2.06658e-06, 7.597e-06, 0, 0
    14300, 2.05693e-06, 7.56337e-06, 0, 0
    14400, 2.04836e-06, 7.53396e-06, 0, 0
    14500, 2.03897e-06, 7.46391e-06, 0, 0
    14600, 2.02916e-06, 7.47325e-06, 0, 0
    14700, 2.01986e-06, 7.40956e-06, 0, 0
    14800, 2.01085e-06, 7.34856e-06, 0, 0
    14900, 2.00227e-06, 7.35367e-06, 0, 0
    15000, 1.99331e-06, 7.28104e-06, 0, 0
    15100, 1.98557e-06, 7.25491e-06, 0, 0
    15200, 1.97624e-06, 7.23201e-06, 0, 0
    15300, 1.97525e-06, 1.31993e-05, 0, 0
    15400, 1.95899e-06, 1.06758e-05, 0, 0
    15500, 1.95175e-06, 7.10644e-06, 0, 0
    15600, 1.9441e-06, 9.58182e-06, 0, 0
    15700, 1.94375e-06, 1.2421e-05, 0, 0
    15800, 1.92782e-06, 7.0189e-06, 0, 0
    15900, 1.91953e-06, 6.93683e-06, 0, 0
    16000, 1.91509e-06, 6.92395e-06, 0, 0
    16100, 1.90445e-06, 1.08691e-05, 0, 0
    16200, 1.89668e-06, 6.81426e-06, 0, 0
    16300, 1.89074e-06, 6.85399e-06, 0, 0
    16400, 1.88991e-06, 1.1721e-05, 0, 0
    16500, 1.87444e-06, 6.68231e-06, 0, 0
    16600, 1.86762e-06, 6.5921e-06, 0, 0
    16700, 1.861e-06, 1.09397e-05, 0, 0
    16800, 1.85364e-06, 6.66668e-06, 0, 0
    16900, 1.84534e-06, 6.54323e-06, 0, 0
    17000, 1.83911e-06, 6.54329e-06, 0, 0
    17100, 1.83309e-06, 1.03278e-05, 0, 0
    17200, 1.82648e-06, 1.04757e-05, 0, 0
    17300, 1.81856e-06, 6.498e-06, 0, 0
    17400, 1.81198e-06, 6.40594e-06, 0, 0
    17500, 1.81265e-06, 1.13851e-05, 0, 0
    17600, 1.79882e-06, 6.40879e-06, 0, 0
    17700, 1.79189e-06, 6.3368e-06, 0, 0
    17800, 1.78738e-06, 1.02318e-05, 0, 0
    17900, 1.77873e-06, 6.21002e-06, 0, 0
    18000, 1.77983e-06, 6.35129e-06, 0, 0
    18100, 1.76742e-06, 6.30813e-06, 0, 0
    18200, 1.7601e-06, 6.16366e-06, 0, 0
    18300, 1.75484e-06, 6.23674e-06, 0, 0
    18400, 1.75097e-06, 6.21573e-06, 0, 0
    18500, 1.74361e-06, 6.20744e-06, 0, 0
    18600, 1.7373e-06, 6.10094e-06, 0, 0
    18700, 1.73238e-06, 6.17605e-06, 0, 0
    18800, 1.72659e-06, 6.06387e-06, 0, 0
    18900, 1.72088e-06, 1.04006e-05, 0, 0
    19000, 1.71535e-06, 6.01292e-06, 0, 0
    19100, 1.71663e-06, 6.07538e-06, 0, 0
    19200, 1.70339e-06, 5.91785e-06, 0, 0
    19300, 1.70132e-06, 5.96719e-06, 0, 0
    19400, 1.693e-06, 5.89978e-06, 0, 0
    19500, 1.6877e-06, 5.86387e-06, 0, 0
    19600, 1.68282e-06, 5.8844e-06, 0, 0
    19700, 1.67728e-06, 5.80241e-06, 0, 0
    19800, 1.67244e-06, 5.83226e-06, 0, 0
    19900, 1.66661e-06, 5.73066e-06, 0, 0
--> FOAM Warning : Max iterations reached within momentum loop
Moving the mesh to the deformed configuration

Max sigmaEq (von Mises stress) = 544922
ExecutionTime = 174.8 s  ClockTime = 175 s

Jacobian determinant max. 1.002 min. 0.998577

Time = 9

Evolving solid solver
Solving the updated Lagrangian form of the momentum equation for DD
    Corr, res, relRes, matRes, iters
    100, 0.000127936, 0.00633404, 0, 0
    200, 9.10215e-05, 0.00189873, 0, 0
    300, 5.27988e-05, 0.0016141, 0, 0
    400, 4.12468e-05, 0.00182946, 0, 0
    500, 3.95369e-05, 0.00201092, 0, 0
    600, 1.86132e-05, 0.000245623, 0, 0
    700, 1.68577e-05, 0.000176782, 0, 0
    800, 1.61818e-05, 0.000182623, 0, 0
    900, 1.58965e-05, 0.00016947, 0, 0
    1000, 1.5638e-05, 0.000163581, 0, 0
    1100, 1.52919e-05, 0.00015274, 0, 0
    1200, 1.49733e-05, 0.000143817, 0, 0
    1300, 1.46535e-05, 0.00013545, 0, 0
    1400, 1.43323e-05, 0.000133131, 0, 0
    1500, 1.39914e-05, 0.000128915, 0, 0
    1600, 1.36649e-05, 0.000123727, 0, 0
    1700, 1.34162e-05, 0.0001181, 0, 0
    1800, 1.28251e-05, 7.87114e-05, 0, 0
    1900, 1.2135e-05, 6.93093e-05, 0, 0
    2000, 1.15659e-05, 6.76249e-05, 0, 0
    2100, 1.0927e-05, 6.52726e-05, 0, 0
    2200, 1.03563e-05, 6.20398e-05, 0, 0
    2300, 9.85626e-06, 5.93803e-05, 0, 0
    2400, 9.47861e-06, 5.75155e-05, 0, 0
    2500, 9.18245e-06, 5.43544e-05, 0, 0
    2600, 8.94236e-06, 5.13779e-05, 0, 0
    2700, 8.74782e-06, 4.92626e-05, 0, 0
    2800, 8.55755e-06, 4.69174e-05, 0, 0
    2900, 8.42452e-06, 4.70499e-05, 0, 0
    3000, 8.27266e-06, 4.66749e-05, 0, 0
    3100, 8.15759e-06, 4.52499e-05, 0, 0
    3200, 8.10638e-06, 4.06549e-05, 0, 0
    3300, 7.84215e-06, 3.39397e-05, 0, 0
    3400, 7.75964e-06, 4.06849e-05, 0, 0
    3500, 7.67053e-06, 3.27232e-05, 0, 0
    3600, 7.54766e-06, 3.49583e-05, 0, 0
    3700, 7.41109e-06, 6.89045e-05, 0, 0
    3800, 7.31194e-06, 3.75672e-05, 0, 0
    3900, 7.24805e-06, 3.77846e-05, 0, 0
    4000, 7.16228e-06, 2.99866e-05, 0, 0
    4100, 7.0661e-06, 2.98499e-05, 0, 0
    4200, 6.96446e-06, 6.01599e-05, 0, 0
    4300, 6.88204e-06, 2.72788e-05, 0, 0
    4400, 6.96176e-06, 2.56671e-05, 0, 0
    4500, 6.7986e-06, 2.67729e-05, 0, 0
    4600, 6.65063e-06, 2.86109e-05, 0, 0
    4700, 6.57097e-06, 2.61328e-05, 0, 0
    4800, 6.48811e-06, 2.51358e-05, 0, 0
    4900, 6.41873e-06, 2.624e-05, 0, 0
    5000, 6.37759e-06, 2.96247e-05, 0, 0
    5100, 6.26695e-06, 3.86802e-05, 0, 0
    5200, 6.2078e-06, 2.4255e-05, 0, 0
    5300, 6.13836e-06, 2.32394e-05, 0, 0
    5400, 6.07129e-06, 2.23339e-05, 0, 0
    5500, 6.01219e-06, 2.26124e-05, 0, 0
    5600, 5.94848e-06, 2.32333e-05, 0, 0
    5700, 5.87737e-06, 2.22453e-05, 0, 0
    5800, 5.80774e-06, 2.09128e-05, 0, 0
    5900, 5.77991e-06, 2.53783e-05, 0, 0
    6000, 5.71623e-06, 6.20969e-05, 0, 0
    6100, 5.62865e-06, 2.01369e-05, 0, 0
    6200, 5.61253e-06, 2.48419e-05, 0, 0
    6300, 5.56066e-06, 2.39551e-05, 0, 0
    6400, 5.46654e-06, 1.93758e-05, 0, 0
    6500, 5.40921e-06, 1.81319e-05, 0, 0
    6600, 5.39441e-06, 2.39529e-05, 0, 0
    6700, 5.28796e-06, 4.8383e-05, 0, 0
    6800, 5.24953e-06, 1.81079e-05, 0, 0
    6900, 5.22367e-06, 1.8034e-05, 0, 0
    7000, 5.14647e-06, 1.8545e-05, 0, 0
    7100, 5.09843e-06, 1.69786e-05, 0, 0
    7200, 5.05255e-06, 1.65477e-05, 0, 0
    7300, 5.03257e-06, 2.11678e-05, 0, 0
    7400, 4.96945e-06, 1.84403e-05, 0, 0
    7500, 4.89924e-06, 1.70456e-05, 0, 0
    7600, 4.86953e-06, 1.73367e-05, 0, 0
    7700, 4.82049e-06, 1.82907e-05, 0, 0
    7800, 4.76407e-06, 1.23774e-05, 0, 0
    7900, 4.71421e-06, 1.23089e-05, 0, 0
    8000, 4.67599e-06, 1.59608e-05, 0, 0
    8100, 4.63234e-06, 1.51629e-05, 0, 0
    8200, 4.68835e-06, 1.2957e-05, 0, 0
    8300, 4.53796e-06, 1.5787e-05, 0, 0
    8400, 4.49519e-06, 1.57937e-05, 0, 0
    8500, 4.48277e-06, 1.66965e-05, 0, 0
    8600, 4.41972e-06, 1.47454e-05, 0, 0
    8700, 4.38123e-06, 1.41509e-05, 0, 0
    8800, 4.35609e-06, 3.69397e-05, 0, 0
    8900, 4.31842e-06, 4.02447e-05, 0, 0
    9000, 4.26336e-06, 9.77055e-06, 0, 0
    9100, 4.2359e-06, 1.33498e-05, 0, 0
    9200, 4.22889e-06, 1.68551e-05, 0, 0
    9300, 4.15325e-06, 9.5543e-06, 0, 0
    9400, 4.12627e-06, 1.2913e-05, 0, 0
    9500, 4.09347e-06, 1.77978e-05, 0, 0
    9600, 4.05264e-06, 1.26992e-05, 0, 0
    9700, 4.04336e-06, 1.63182e-05, 0, 0
    9800, 3.98192e-06, 9.11312e-06, 0, 0
    9900, 3.95321e-06, 1.22624e-05, 0, 0
    10000, 3.94186e-06, 1.59016e-05, 0, 0
    10100, 3.8888e-06, 1.19216e-05, 0, 0
    10200, 3.86092e-06, 2.07926e-05, 0, 0
    10300, 3.82243e-06, 8.83106e-06, 0, 0
    10400, 3.8132e-06, 1.55661e-05, 0, 0
    10500, 3.76841e-06, 1.16217e-05, 0, 0
    10600, 3.72924e-06, 9.31738e-06, 0, 0
    10700, 3.70546e-06, 1.12778e-05, 0, 0
    10800, 3.67654e-06, 3.63181e-05, 0, 0
    10900, 3.66891e-06, 1.22611e-05, 0, 0
    11000, 3.61809e-06, 8.30137e-06, 0, 0
    11100, 3.59688e-06, 1.42498e-05, 0, 0
    11200, 3.56894e-06, 1.09152e-05, 0, 0
    11300, 3.53334e-06, 8.12887e-06, 0, 0
    11400, 3.51193e-06, 1.08222e-05, 0, 0
    11500, 3.49312e-06, 1.06351e-05, 0, 0
    11600, 3.45465e-06, 7.96194e-06, 0, 0
    11700, 3.43644e-06, 1.0364e-05, 0, 0
    11800, 3.41537e-06, 7.84201e-06, 0, 0
    11900, 3.37829e-06, 7.77781e-06, 0, 0
    12000, 3.36173e-06, 1.00935e-05, 0, 0
    12100, 3.34459e-06, 1.00903e-05, 0, 0
    12200, 3.30751e-06, 7.56976e-06, 0, 0
    12300, 3.29713e-06, 1.05574e-05, 0, 0
    12400, 3.27774e-06, 1.06811e-05, 0, 0
    12500, 3.24199e-06, 7.38384e-06, 0, 0
    12600, 3.21526e-06, 7.45982e-06, 0, 0
    12700, 3.19357e-06, 7.55714e-06, 0, 0
    12800, 3.17179e-06, 7.57153e-06, 0, 0
    12900, 3.16416e-06, 9.838e-06, 0, 0
    13000, 3.13867e-06, 9.05324e-06, 0, 0
    13100, 3.10294e-06, 7.33446e-06, 0, 0
    13200, 3.11137e-06, 1.08396e-05, 0, 0
    13300, 3.06952e-06, 7.19766e-06, 0, 0
    13400, 3.03923e-06, 6.94235e-06, 0, 0
    13500, 3.01999e-06, 7.06988e-06, 0, 0
    13600, 3.02119e-06, 7.07985e-06, 0, 0
    13700, 2.98209e-06, 7.38454e-06, 0, 0
    13800, 2.97348e-06, 9.05084e-06, 0, 0
    13900, 2.94239e-06, 6.56912e-06, 0, 0
    14000, 2.93342e-06, 9.19445e-06, 0, 0
    14100, 2.903e-06, 6.59225e-06, 0, 0
    14200, 2.88712e-06, 6.63775e-06, 0, 0
    14300, 2.88201e-06, 6.48965e-06, 0, 0
    14400, 2.85156e-06, 1.63702e-05, 0, 0
    14500, 2.83335e-06, 6.38991e-06, 0, 0
    14600, 2.82591e-06, 6.25465e-06, 0, 0
    14700, 2.80564e-06, 1.19727e-05, 0, 0
    14800, 2.78017e-06, 6.19354e-06, 0, 0
    14900, 2.76407e-06, 6.31868e-06, 0, 0
    15000, 2.76014e-06, 6.36583e-06, 0, 0
    15100, 2.74156e-06, 9.76354e-06, 0, 0
    15200, 2.71643e-06, 6.04263e-06, 0, 0
    15300, 2.71159e-06, 8.27599e-06, 0, 0
    15400, 2.68321e-06, 6.01507e-06, 0, 0
    15500, 2.6785e-06, 7.95122e-06, 0, 0
    15600, 2.65157e-06, 5.98296e-06, 0, 0
    15700, 2.64397e-06, 8.11317e-06, 0, 0
    15800, 2.63106e-06, 9.79389e-06, 0, 0
    15900, 2.60755e-06, 5.72053e-06, 0, 0
    16000, 2.59396e-06, 5.77761e-06, 0, 0
    16100, 2.57949e-06, 5.62832e-06, 0, 0
    16200, 2.57323e-06, 9.48314e-06, 0, 0
    16300, 2.54875e-06, 5.68603e-06, 0, 0
    16400, 2.54435e-06, 5.49972e-06, 0, 0
    16500, 2.52727e-06, 2.67566e-05, 0, 0
    16600, 2.50921e-06, 5.43267e-06, 0, 0
    16700, 2.50256e-06, 5.35665e-06, 0, 0
    16800, 2.47562e-06, 2.80103e-05, 0, 0
    16900, 2.46888e-06, 5.29526e-06, 0, 0
    17000, 2.46195e-06, 5.2851e-06, 0, 0
    17100, 2.442e-06, 5.25967e-06, 0, 0
    17200, 2.43028e-06, 5.1627e-06, 0, 0
    17300, 2.4245e-06, 6.80484e-06, 0, 0
    17400, 2.40352e-06, 5.13622e-06, 0, 0
    17500, 2.39913e-06, 5.05438e-06, 0, 0
    17600, 2.37953e-06, 5.0799e-06, 0, 0
    17700, 2.36815e-06, 4.97624e-06, 0, 0
    17800, 2.36294e-06, 5.00661e-06, 0, 0
    17900, 2.34275e-06, 4.96707e-06, 0, 0
    18000, 2.333e-06, 4.97547e-06, 0, 0
    18100, 2.32853e-06, 4.87886e-06, 0, 0
    18200, 2.3097e-06, 4.88695e-06, 0, 0
    18300, 2.29917e-06, 4.816e-06, 0, 0
    18400, 2.29546e-06, 6.99322e-06, 0, 0
    18500, 2.27544e-06, 4.74698e-06, 0, 0
    18600, 2.2686e-06, 9.08644e-06, 0, 0
    18700, 2.25257e-06, 4.72219e-06, 0, 0
    18800, 2.25215e-06, 6.29882e-06, 0, 0
[...]
    14400, 3.76582e-06, 5.27051e-06, 0, 0
    14500, 3.75491e-06, 5.21247e-06, 0, 0
    14600, 3.7441e-06, 5.15524e-06, 0, 0
    14700, 3.73347e-06, 5.09881e-06, 0, 0
    14800, 3.72293e-06, 5.04318e-06, 0, 0
    14900, 3.71254e-06, 4.98832e-06, 0, 0
    15000, 3.70226e-06, 4.93422e-06, 0, 0
    15100, 3.69207e-06, 4.88088e-06, 0, 0
    15200, 3.68198e-06, 4.82827e-06, 0, 0
    15300, 3.67205e-06, 4.7764e-06, 0, 0
    15400, 3.66219e-06, 4.72524e-06, 0, 0
    15500, 3.65241e-06, 4.67479e-06, 0, 0
    15600, 3.64271e-06, 4.62503e-06, 0, 0
    15700, 3.63311e-06, 4.57595e-06, 0, 0
    15800, 3.62363e-06, 4.52755e-06, 0, 0
    15900, 3.61424e-06, 4.47982e-06, 0, 0
    16000, 3.60491e-06, 4.43273e-06, 0, 0
    16100, 3.59573e-06, 4.38629e-06, 0, 0
    16200, 3.58663e-06, 4.34048e-06, 0, 0
    16300, 3.5776e-06, 4.29529e-06, 0, 0
    16400, 3.56864e-06, 4.25071e-06, 0, 0
    16500, 3.55977e-06, 4.20674e-06, 0, 0
    16600, 3.55103e-06, 4.16337e-06, 0, 0
    16700, 3.54239e-06, 4.12057e-06, 0, 0
    16800, 3.53385e-06, 4.07836e-06, 0, 0
    16900, 3.52544e-06, 4.03671e-06, 0, 0
    17000, 3.51712e-06, 3.99562e-06, 0, 0
    17100, 3.50885e-06, 3.95508e-06, 0, 0
    17200, 3.50067e-06, 3.91508e-06, 0, 0
    17300, 3.49255e-06, 3.87562e-06, 0, 0
    17400, 3.48449e-06, 3.83668e-06, 0, 0
    17500, 3.47652e-06, 3.79826e-06, 0, 0
    17600, 3.46861e-06, 3.76035e-06, 0, 0
    17700, 3.46076e-06, 3.72294e-06, 0, 0
    17800, 3.45294e-06, 3.68603e-06, 0, 0
    17900, 3.44518e-06, 3.64961e-06, 0, 0
    18000, 3.43752e-06, 3.61366e-06, 0, 0
    18100, 3.42992e-06, 3.57819e-06, 0, 0
    18200, 3.42239e-06, 3.54318e-06, 0, 0
    18300, 3.41496e-06, 3.50863e-06, 0, 0
    18400, 3.40761e-06, 3.47454e-06, 0, 0
    18500, 3.40032e-06, 3.44089e-06, 0, 0
    18600, 3.39306e-06, 3.40767e-06, 0, 0
    18700, 3.38584e-06, 3.37489e-06, 0, 0
    18800, 3.37867e-06, 3.34254e-06, 0, 0
    18900, 3.37157e-06, 3.31061e-06, 0, 0
    19000, 3.36455e-06, 3.27909e-06, 0, 0
    19100, 3.35758e-06, 3.25679e-06, 0, 0
    19200, 3.35065e-06, 3.24183e-06, 0, 0
    19300, 3.34376e-06, 3.22697e-06, 0, 0
    19400, 3.33691e-06, 3.21221e-06, 0, 0
    19500, 3.33013e-06, 3.19756e-06, 0, 0
    19600, 3.32345e-06, 3.18301e-06, 0, 0
    19700, 3.31681e-06, 3.16856e-06, 0, 0
    19800, 3.31021e-06, 3.15421e-06, 0, 0
    19900, 3.30365e-06, 3.13997e-06, 0, 0
--> FOAM Warning : Max iterations reached within momentum loop
Moving the mesh to the deformed configuration

Max sigmaEq (von Mises stress) = 3.67562e+06
ExecutionTime = 600.51 s  ClockTime = 601 s

Jacobian determinant max. 1.00435 min. 0.992999

Time = 29

Evolving solid solver
Solving the updated Lagrangian form of the momentum equation for DD
    Corr, res, relRes, matRes, iters
    100, 0.000123939, 0.0378151, 0, 0
    200, 5.8548e-05, 0.0176663, 0, 0
    300, 1.67952e-05, 0.00363316, 0, 0
    400, 9.19561e-06, 0.00259199, 0, 0
    500, 4.92126e-06, 0.00117127, 0, 0
    600, 4.73573e-06, 0.000415151, 0, 0
    700, 4.57176e-06, 0.000139736, 0, 0
    800, 4.50126e-06, 0.000134833, 0, 0
    900, 4.4387e-06, 0.000110938, 0, 0
    1000, 4.4248e-06, 0.000102929, 0, 0
    1100, 4.37976e-06, 0.000100303, 0, 0
    1200, 4.36523e-06, 8.53764e-05, 0, 0
    1300, 4.35361e-06, 8.07656e-05, 0, 0
    1400, 4.32983e-06, 7.57154e-05, 0, 0
    1500, 4.32758e-06, 7.1102e-05, 0, 0
    1600, 4.30986e-06, 6.69832e-05, 0, 0
    1700, 4.29467e-06, 6.37633e-05, 0, 0
    1800, 4.27698e-06, 6.06142e-05, 0, 0
    1900, 4.2611e-06, 5.75776e-05, 0, 0
    2000, 4.24244e-06, 5.51915e-05, 0, 0
    2100, 4.22956e-06, 5.25677e-05, 0, 0
    2200, 4.21457e-06, 5.02439e-05, 0, 0
    2300, 4.19622e-06, 4.8251e-05, 0, 0
    2400, 4.18368e-06, 4.58073e-05, 0, 0
    2500, 4.16676e-06, 4.36529e-05, 0, 0
    2600, 4.15171e-06, 4.25205e-05, 0, 0
    2700, 4.13717e-06, 4.02057e-05, 0, 0
    2800, 4.12419e-06, 3.8778e-05, 0, 0
    2900, 4.10958e-06, 3.72695e-05, 0, 0
    3000, 4.09366e-06, 3.58756e-05, 0, 0
    3100, 4.08164e-06, 3.42121e-05, 0, 0
    3200, 4.06584e-06, 3.3176e-05, 0, 0
    3300, 4.05223e-06, 3.19343e-05, 0, 0
    3400, 4.0393e-06, 3.08192e-05, 0, 0
    3500, 4.02544e-06, 2.96089e-05, 0, 0
    3600, 4.01201e-06, 2.85173e-05, 0, 0
    3700, 3.999e-06, 2.76573e-05, 0, 0
    3800, 3.98553e-06, 2.62032e-05, 0, 0
    3900, 3.9717e-06, 1.98355e-05, 0, 0
    4000, 3.95881e-06, 2.49163e-05, 0, 0
    4100, 3.94604e-06, 2.42061e-05, 0, 0
    4200, 3.93304e-06, 1.80881e-05, 0, 0
    4300, 3.92023e-06, 1.76712e-05, 0, 0
    4400, 3.90825e-06, 2.2404e-05, 0, 0
    4500, 3.89553e-06, 1.68567e-05, 0, 0
    4600, 3.88296e-06, 1.64799e-05, 0, 0
    4700, 3.8701e-06, 1.6122e-05, 0, 0
    4800, 3.85858e-06, 1.58776e-05, 0, 0
    4900, 3.84601e-06, 1.54102e-05, 0, 0
    5000, 3.83455e-06, 1.52369e-05, 0, 0
    5100, 3.82256e-06, 1.48663e-05, 0, 0
    5200, 3.81094e-06, 1.46087e-05, 0, 0
    5300, 3.7994e-06, 1.43127e-05, 0, 0
    5400, 3.78794e-06, 1.40595e-05, 0, 0
    5500, 3.77664e-06, 1.38127e-05, 0, 0
    5600, 3.76563e-06, 1.35744e-05, 0, 0
    5700, 3.7549e-06, 1.33436e-05, 0, 0
    5800, 3.74429e-06, 1.31197e-05, 0, 0
    5900, 3.73382e-06, 1.29019e-05, 0, 0
    6000, 3.72348e-06, 1.269e-05, 0, 0
    6100, 3.71331e-06, 1.24836e-05, 0, 0
    6200, 3.70329e-06, 1.22823e-05, 0, 0
    6300, 3.69336e-06, 1.2086e-05, 0, 0
    6400, 3.6835e-06, 1.18944e-05, 0, 0
    6500, 3.67372e-06, 1.17074e-05, 0, 0
    6600, 3.664e-06, 1.15247e-05, 0, 0
    6700, 3.65434e-06, 1.13463e-05, 0, 0
    6800, 3.64473e-06, 1.1172e-05, 0, 0
    6900, 3.63518e-06, 1.10017e-05, 0, 0
    7000, 3.62569e-06, 1.08351e-05, 0, 0
    7100, 3.61626e-06, 1.06723e-05, 0, 0
    7200, 3.60693e-06, 1.05131e-05, 0, 0
    7300, 3.59771e-06, 1.03574e-05, 0, 0
    7400, 3.58869e-06, 1.02051e-05, 0, 0
    7500, 3.57972e-06, 1.0056e-05, 0, 0
    7600, 3.57077e-06, 9.91013e-06, 0, 0
    7700, 3.56187e-06, 9.76735e-06, 0, 0
    7800, 3.55305e-06, 9.62757e-06, 0, 0
    7900, 3.54428e-06, 9.49072e-06, 0, 0
    8000, 3.53559e-06, 9.35671e-06, 0, 0
    8100, 3.52696e-06, 9.22545e-06, 0, 0
    8200, 3.51835e-06, 9.09688e-06, 0, 0
    8300, 3.50986e-06, 8.97091e-06, 0, 0
    8400, 3.50145e-06, 8.84749e-06, 0, 0
    8500, 3.4931e-06, 8.72653e-06, 0, 0
    8600, 3.48479e-06, 8.60797e-06, 0, 0
    8700, 3.47654e-06, 8.49175e-06, 0, 0
    8800, 3.46836e-06, 8.37781e-06, 0, 0
    8900, 3.46024e-06, 8.26609e-06, 0, 0
    9000, 3.45217e-06, 8.15652e-06, 0, 0
    9100, 3.44416e-06, 8.04906e-06, 0, 0
    9200, 3.43621e-06, 7.94365e-06, 0, 0
    9300, 3.42842e-06, 7.84023e-06, 0, 0
    9400, 3.42069e-06, 7.73876e-06, 0, 0
    9500, 3.41305e-06, 7.63919e-06, 0, 0
    9600, 3.40545e-06, 7.54146e-06, 0, 0
    9700, 3.39793e-06, 7.44554e-06, 0, 0
    9800, 3.39048e-06, 7.35138e-06, 0, 0
    9900, 3.38308e-06, 7.25893e-06, 0, 0
    10000, 3.3759e-06, 7.16816e-06, 0, 0
    10100, 3.36904e-06, 7.07901e-06, 0, 0
    10200, 3.36227e-06, 6.99146e-06, 0, 0
    10300, 3.3557e-06, 6.90547e-06, 0, 0
    10400, 3.34917e-06, 6.82099e-06, 0, 0
    10500, 3.34267e-06, 6.738e-06, 0, 0
    10600, 3.33618e-06, 6.65645e-06, 0, 0
    10700, 3.32971e-06, 6.57631e-06, 0, 0
    10800, 3.32331e-06, 6.49756e-06, 0, 0
    10900, 3.31696e-06, 6.42015e-06, 0, 0
    11000, 3.31064e-06, 6.34406e-06, 0, 0
    11100, 3.30436e-06, 6.26926e-06, 0, 0
    11200, 3.29812e-06, 6.19571e-06, 0, 0
    11300, 3.29192e-06, 6.12339e-06, 0, 0
    11400, 3.28576e-06, 6.05228e-06, 0, 0
    11500, 3.27963e-06, 5.98234e-06, 0, 0
    11600, 3.27354e-06, 5.91355e-06, 0, 0
    11700, 3.26752e-06, 5.84588e-06, 0, 0
    11800, 3.26152e-06, 5.77931e-06, 0, 0
    11900, 3.25556e-06, 5.71382e-06, 0, 0
    12000, 3.24964e-06, 5.64937e-06, 0, 0
    12100, 3.24374e-06, 5.58596e-06, 0, 0
    12200, 3.2379e-06, 5.52355e-06, 0, 0
    12300, 3.23212e-06, 5.46213e-06, 0, 0
    12400, 3.22638e-06, 5.4159e-06, 0, 0
    12500, 3.22071e-06, 5.38333e-06, 0, 0
    12600, 3.21506e-06, 5.35099e-06, 0, 0
    12700, 3.20947e-06, 5.31887e-06, 0, 0
    12800, 3.20393e-06, 5.28697e-06, 0, 0
    12900, 3.19841e-06, 5.2553e-06, 0, 0
    13000, 3.19291e-06, 5.22384e-06, 0, 0
    13100, 3.18746e-06, 5.19261e-06, 0, 0
    13200, 3.18207e-06, 5.16161e-06, 0, 0
    13300, 3.17673e-06, 5.13082e-06, 0, 0
    13400, 3.17142e-06, 5.10025e-06, 0, 0
    13500, 3.16614e-06, 5.0699e-06, 0, 0
    13600, 3.16089e-06, 5.03977e-06, 0, 0
    13700, 3.15569e-06, 5.00987e-06, 0, 0
    13800, 3.15054e-06, 4.98017e-06, 0, 0
    13900, 3.14546e-06, 4.9507e-06, 0, 0
    14000, 3.14042e-06, 4.92144e-06, 0, 0
    14100, 3.13538e-06, 4.8924e-06, 0, 0
    14200, 3.13037e-06, 4.86357e-06, 0, 0
    14300, 3.12539e-06, 4.83496e-06, 0, 0
    14400, 3.12053e-06, 4.80656e-06, 0, 0
    14500, 3.11569e-06, 4.77837e-06, 0, 0
    14600, 3.11089e-06, 4.75039e-06, 0, 0
    14700, 3.10614e-06, 4.72262e-06, 0, 0
    14800, 3.10142e-06, 4.69506e-06, 0, 0
    14900, 3.09674e-06, 4.66771e-06, 0, 0
    15000, 3.09208e-06, 4.64057e-06, 0, 0
    15100, 3.08747e-06, 4.61363e-06, 0, 0
    15200, 3.08291e-06, 4.58689e-06, 0, 0
    15300, 3.07837e-06, 4.56036e-06, 0, 0
    15400, 3.07385e-06, 4.53403e-06, 0, 0
    15500, 3.06935e-06, 4.5079e-06, 0, 0
    15600, 3.06491e-06, 4.48197e-06, 0, 0
    15700, 3.06051e-06, 4.45624e-06, 0, 0
    15800, 3.05616e-06, 4.4307e-06, 0, 0
    15900, 3.05182e-06, 4.40537e-06, 0, 0
    16000, 3.0475e-06, 4.38022e-06, 0, 0
    16100, 3.04321e-06, 4.35527e-06, 0, 0
    16200, 3.03893e-06, 4.33051e-06, 0, 0
    16300, 3.03467e-06, 4.30595e-06, 0, 0
    16400, 3.03043e-06, 4.28912e-06, 0, 0
    16500, 3.02621e-06, 4.27621e-06, 0, 0
    16600, 3.02203e-06, 4.26347e-06, 0, 0
    16700, 3.01787e-06, 4.25089e-06, 0, 0
    16800, 3.01374e-06, 4.23847e-06, 0, 0
    16900, 3.00964e-06, 4.22621e-06, 0, 0
    17000, 3.00555e-06, 4.2141e-06, 0, 0
    17100, 3.00148e-06, 4.20215e-06, 0, 0
    17200, 2.99743e-06, 4.1903e-06, 0, 0
    17300, 2.99456e-06, 4.2518e-06, 0, 0
    17400, 2.99132e-06, 4.23122e-06, 0, 0
    17500, 2.98779e-06, 4.21358e-06, 0, 0
    17600, 2.98419e-06, 4.19704e-06, 0, 0
    17700, 2.98052e-06, 4.18192e-06, 0, 0
    17800, 2.97682e-06, 4.16781e-06, 0, 0
    17900, 2.97308e-06, 4.15457e-06, 0, 0
    18000, 2.96932e-06, 4.14199e-06, 0, 0
    18100, 2.96556e-06, 4.12993e-06, 0, 0
    18200, 2.96179e-06, 4.11827e-06, 0, 0
    18300, 2.95804e-06, 4.10693e-06, 0, 0
    18400, 2.95429e-06, 4.09587e-06, 0, 0
    18500, 2.95054e-06, 4.08503e-06, 0, 0
    18600, 2.94679e-06, 4.0744e-06, 0, 0
    18700, 2.94304e-06, 4.06394e-06, 0, 0
    18800, 2.93932e-06, 4.05365e-06, 0, 0
    18900, 2.9356e-06, 4.04352e-06, 0, 0
    19000, 2.93189e-06, 4.03353e-06, 0, 0
    19100, 2.92821e-06, 4.02369e-06, 0, 0
    19200, 2.92457e-06, 4.01398e-06, 0, 0
    19300, 2.92093e-06, 4.0044e-06, 0, 0
    19400, 2.91732e-06, 3.99495e-06, 0, 0
    19500, 2.91372e-06, 3.98562e-06, 0, 0
    19600, 2.91013e-06, 3.97642e-06, 0, 0
    19700, 2.90656e-06, 3.96733e-06, 0, 0
    19800, 2.90303e-06, 3.95837e-06, 0, 0
    19900, 2.89952e-06, 3.94951e-06, 0, 0
--> FOAM Warning : Max iterations reached within momentum loop
Moving the mesh to the deformed configuration

Max sigmaEq (von Mises stress) = 3.97009e+06
ExecutionTime = 618.89 s  ClockTime = 619 s

Jacobian determinant max. 1.00464 min. 0.993272

Time = 30

Evolving solid solver
Solving the updated Lagrangian form of the momentum equation for DD
    Corr, res, relRes, matRes, iters
    100, 0.000179853, 0.00613759, 0, 0
    200, 9.92309e-05, 0.00535699, 0, 0
    300, 6.28166e-05, 0.00263094, 0, 0
    400, 4.47878e-05, 0.00218545, 0, 0
    500, 3.27752e-05, 0.000911641, 0, 0
    600, 2.48172e-05, 0.000451312, 0, 0
    700, 2.33933e-05, 0.000371236, 0, 0
    800, 2.27581e-05, 0.000343208, 0, 0
    900, 2.25251e-05, 0.000303403, 0, 0
    1000, 2.23099e-05, 0.000283045, 0, 0
    1100, 2.21245e-05, 0.00028049, 0, 0
    1200, 2.16145e-05, 0.000281286, 0, 0
    1300, 1.89291e-05, 0.000112881, 0, 0
    1400, 1.67868e-05, 7.98021e-05, 0, 0
    1500, 1.53242e-05, 6.14976e-05, 0, 0
    1600, 1.41407e-05, 4.99258e-05, 0, 0
    1700, 1.34988e-05, 4.95546e-05, 0, 0
    1800, 1.29473e-05, 4.90676e-05, 0, 0
    1900, 1.24436e-05, 4.83056e-05, 0, 0
    2000, 1.19818e-05, 4.73089e-05, 0, 0
    2100, 1.1562e-05, 4.61246e-05, 0, 0
    2200, 1.12004e-05, 4.47983e-05, 0, 0
    2300, 1.08889e-05, 4.30588e-05, 0, 0
    2400, 1.05928e-05, 5.01104e-05, 0, 0
    2500, 1.03256e-05, 4.03047e-05, 0, 0
    2600, 1.00908e-05, 3.9696e-05, 0, 0
    2700, 9.88415e-06, 4.55543e-05, 0, 0
    2800, 9.70657e-06, 4.4017e-05, 0, 0
    2900, 9.53899e-06, 4.32605e-05, 0, 0
    3000, 9.3806e-06, 4.24988e-05, 0, 0
    3100, 9.25053e-06, 4.19327e-05, 0, 0
    3200, 9.10306e-06, 3.87038e-05, 0, 0
    3300, 8.96844e-06, 3.99819e-05, 0, 0
    3400, 8.83492e-06, 3.90774e-05, 0, 0
    3500, 8.70441e-06, 3.61778e-05, 0, 0
    3600, 8.58396e-06, 3.69972e-05, 0, 0
    3700, 8.45373e-06, 3.47952e-05, 0, 0
    3800, 8.33865e-06, 3.40159e-05, 0, 0
    3900, 8.2366e-06, 3.44565e-05, 0, 0
    4000, 8.12889e-06, 3.16208e-05, 0, 0
    4100, 8.01836e-06, 3.1171e-05, 0, 0
    4200, 7.90027e-06, 3.15459e-05, 0, 0
    4300, 7.80756e-06, 2.98401e-05, 0, 0
    4400, 7.69379e-06, 3.02113e-05, 0, 0
    4500, 7.59684e-06, 2.91457e-05, 0, 0
    4600, 7.50128e-06, 2.85506e-05, 0, 0
    4700, 7.42399e-06, 2.55762e-05, 0, 0
    4800, 7.31246e-06, 2.79271e-05, 0, 0
    4900, 7.22512e-06, 2.69707e-05, 0, 0
    5000, 7.15708e-06, 2.38709e-05, 0, 0
    5100, 7.05783e-06, 2.49445e-05, 0, 0
    5200, 6.97774e-06, 2.30811e-05, 0, 0
    5300, 6.89051e-06, 2.05822e-05, 0, 0
    5400, 6.80963e-06, 2.01637e-05, 0, 0
    5500, 6.73114e-06, 1.96833e-05, 0, 0
    5600, 6.65453e-06, 1.92277e-05, 0, 0
    5700, 6.57706e-06, 2.216e-05, 0, 0
    5800, 6.5115e-06, 2.0038e-05, 0, 0
    5900, 6.43491e-06, 1.80905e-05, 0, 0
    6000, 6.36512e-06, 2.09537e-05, 0, 0
    6100, 6.29905e-06, 2.07494e-05, 0, 0
    6200, 6.23763e-06, 1.70174e-05, 0, 0
    6300, 6.17652e-06, 1.9045e-05, 0, 0
    6400, 6.11013e-06, 1.95186e-05, 0, 0
    6500, 6.05374e-06, 1.59441e-05, 0, 0
    6600, 5.99722e-06, 1.53669e-05, 0, 0
    6700, 5.9427e-06, 1.49073e-05, 0, 0
    6800, 5.88442e-06, 1.48576e-05, 0, 0
    6900, 5.83061e-06, 1.45621e-05, 0, 0
    7000, 5.77918e-06, 1.43002e-05, 0, 0
    7100, 5.7306e-06, 1.38272e-05, 0, 0
    7200, 5.68235e-06, 1.34449e-05, 0, 0
    7300, 5.63318e-06, 1.32624e-05, 0, 0
    7400, 5.58558e-06, 1.30004e-05, 0, 0
    7500, 5.53823e-06, 1.29683e-05, 0, 0
    7600, 5.49255e-06, 1.26665e-05, 0, 0
    7700, 5.44671e-06, 1.56321e-05, 0, 0
    7800, 5.40523e-06, 1.2276e-05, 0, 0
    7900, 5.36486e-06, 1.19338e-05, 0, 0
    8000, 5.32607e-06, 1.1415e-05, 0, 0
    8100, 5.28274e-06, 1.1617e-05, 0, 0
    8200, 5.2456e-06, 1.12382e-05, 0, 0
    8300, 5.20649e-06, 1.11727e-05, 0, 0
    8400, 5.17239e-06, 1.05327e-05, 0, 0
    8500, 5.13331e-06, 1.36944e-05, 0, 0
    8600, 5.10028e-06, 1.02565e-05, 0, 0
    8700, 5.06458e-06, 1.03215e-05, 0, 0
    8800, 5.03019e-06, 1.30669e-05, 0, 0
    8900, 4.99751e-06, 1.00069e-05, 0, 0
    9000, 4.96719e-06, 9.51629e-06, 0, 0
    9100, 4.93398e-06, 1.24298e-05, 0, 0
    9200, 4.90522e-06, 9.18039e-06, 0, 0
    9300, 4.87383e-06, 9.25169e-06, 0, 0
    9400, 4.84529e-06, 9.09293e-06, 0, 0
    9500, 4.81918e-06, 8.59134e-06, 0, 0
    9600, 4.79066e-06, 8.85695e-06, 0, 0
    9700, 4.76562e-06, 8.31575e-06, 0, 0
    9800, 4.73909e-06, 8.44529e-06, 0, 0
    9900, 4.71356e-06, 8.30196e-06, 0, 0
    10000, 4.68791e-06, 8.1899e-06, 0, 0
    10100, 4.66322e-06, 1.09318e-05, 0, 0
    10200, 4.63919e-06, 1.07819e-05, 0, 0
    10300, 4.61591e-06, 7.76645e-06, 0, 0
    10400, 4.5929e-06, 7.70125e-06, 0, 0
    10500, 4.57035e-06, 7.5738e-06, 0, 0
    10600, 4.54849e-06, 7.45699e-06, 0, 0
    10700, 4.52645e-06, 1.01748e-05, 0, 0
    10800, 4.50486e-06, 7.24258e-06, 0, 0
    10900, 4.48364e-06, 7.12989e-06, 0, 0
    11000, 4.46292e-06, 7.01124e-06, 0, 0
    11100, 4.44247e-06, 6.89729e-06, 0, 0
    11200, 4.4223e-06, 6.78588e-06, 0, 0
    11300, 4.40238e-06, 6.67682e-06, 0, 0
    11400, 4.38277e-06, 6.57007e-06, 0, 0
    11500, 4.36386e-06, 6.46559e-06, 0, 0
    11600, 4.34528e-06, 6.36331e-06, 0, 0
    11700, 4.32694e-06, 6.26317e-06, 0, 0
    11800, 4.30881e-06, 6.16513e-06, 0, 0
    11900, 4.29088e-06, 6.06911e-06, 0, 0
    12000, 4.27316e-06, 5.97507e-06, 0, 0
    12100, 4.25566e-06, 5.88294e-06, 0, 0
    12200, 4.23836e-06, 5.79268e-06, 0, 0
    12300, 4.2213e-06, 5.70424e-06, 0, 0
    12400, 4.20449e-06, 5.61756e-06, 0, 0
    12500, 4.1879e-06, 5.5326e-06, 0, 0
    12600, 4.17158e-06, 5.44932e-06, 0, 0
    12700, 4.15545e-06, 5.36766e-06, 0, 0
    12800, 4.1395e-06, 5.2876e-06, 0, 0
    12900, 4.12386e-06, 5.20907e-06, 0, 0
    13000, 4.10849e-06, 5.13206e-06, 0, 0
    13100, 4.09341e-06, 5.05651e-06, 0, 0
    13200, 4.07869e-06, 4.9824e-06, 0, 0
    13300, 4.06417e-06, 4.90968e-06, 0, 0
    13400, 4.04987e-06, 4.83833e-06, 0, 0
    13500, 4.03574e-06, 4.7683e-06, 0, 0
    13600, 4.02181e-06, 4.69958e-06, 0, 0
    13700, 4.00808e-06, 4.63212e-06, 0, 0
    13800, 3.99468e-06, 4.56589e-06, 0, 0
    13900, 3.9816e-06, 4.50087e-06, 0, 0
    14000, 3.96866e-06, 4.43704e-06, 0, 0
    14100, 3.95613e-06, 4.37435e-06, 0, 0
    14200, 3.94395e-06, 4.31279e-06, 0, 0
    14300, 3.9319e-06, 4.25233e-06, 0, 0
    14400, 3.92007e-06, 4.19294e-06, 0, 0
    14500, 3.9084e-06, 4.13461e-06, 0, 0
    14600, 3.89687e-06, 4.0773e-06, 0, 0
    14700, 3.88547e-06, 4.02099e-06, 0, 0
    14800, 3.87419e-06, 3.96567e-06, 0, 0
    14900, 3.86309e-06, 3.91131e-06, 0, 0
    15000, 3.85212e-06, 3.85789e-06, 0, 0
    15100, 3.84126e-06, 3.80539e-06, 0, 0
    15200, 3.83055e-06, 3.75775e-06, 0, 0
    15300, 3.81999e-06, 3.71241e-06, 0, 0
    15400, 3.80961e-06, 3.66772e-06, 0, 0
    15500, 3.79948e-06, 3.62366e-06, 0, 0
    15600, 3.78945e-06, 3.58023e-06, 0, 0
    15700, 3.77953e-06, 3.53741e-06, 0, 0
    15800, 3.76971e-06, 3.4952e-06, 0, 0
    15900, 3.76e-06, 3.45359e-06, 0, 0
    16000, 3.75039e-06, 3.41256e-06, 0, 0
    16100, 3.7409e-06, 3.37211e-06, 0, 0
    16200, 3.73159e-06, 3.33223e-06, 0, 0
    16300, 3.7224e-06, 3.29291e-06, 0, 0
    16400, 3.7133e-06, 3.25414e-06, 0, 0
    16500, 3.70433e-06, 3.21591e-06, 0, 0
    16600, 3.69547e-06, 3.17821e-06, 0, 0
    16700, 3.68673e-06, 3.14104e-06, 0, 0
    16800, 3.67813e-06, 3.10439e-06, 0, 0
    16900, 3.66973e-06, 3.06824e-06, 0, 0
    17000, 3.66152e-06, 3.0326e-06, 0, 0
    17100, 3.65339e-06, 3.00656e-06, 0, 0
    17200, 3.64535e-06, 3.00266e-06, 0, 0
    17300, 3.63738e-06, 2.99882e-06, 0, 0
    17400, 3.62948e-06, 2.99506e-06, 0, 0
    17500, 3.62166e-06, 2.99136e-06, 0, 0
    17600, 3.61391e-06, 2.98773e-06, 0, 0
    17700, 3.60629e-06, 2.98417e-06, 0, 0
    17800, 3.59875e-06, 2.98068e-06, 0, 0
    17900, 3.59125e-06, 2.97726e-06, 0, 0
    18000, 3.58382e-06, 2.9739e-06, 0, 0
    18100, 3.57649e-06, 2.97061e-06, 0, 0
    18200, 3.56925e-06, 2.96739e-06, 0, 0
    18300, 3.5621e-06, 2.96423e-06, 0, 0
    18400, 3.55502e-06, 2.96114e-06, 0, 0
    18500, 3.54802e-06, 2.95812e-06, 0, 0
    18600, 3.5412e-06, 2.95516e-06, 0, 0
    18700, 3.5345e-06, 2.95226e-06, 0, 0
    18800, 3.52785e-06, 2.94943e-06, 0, 0
    18900, 3.52128e-06, 2.94665e-06, 0, 0
    19000, 3.51484e-06, 2.94395e-06, 0, 0
    19100, 3.50849e-06, 2.9413e-06, 0, 0
    19200, 3.5022e-06, 2.93872e-06, 0, 0
    19300, 3.49597e-06, 2.93619e-06, 0, 0
    19400, 3.48983e-06, 2.93373e-06, 0, 0
    19500, 3.48375e-06, 2.93133e-06, 0, 0
    19600, 3.4777e-06, 2.92899e-06, 0, 0
    19700, 3.4717e-06, 2.9267e-06, 0, 0
    19800, 3.46579e-06, 2.92448e-06, 0, 0
    19900, 3.45992e-06, 2.92231e-06, 0, 0
--> FOAM Warning : Max iterations reached within momentum loop
Moving the mesh to the deformed configuration

Max sigmaEq (von Mises stress) = 4.28911e+06
ExecutionTime = 637.28 s  ClockTime = 638 s

Jacobian determinant max. 1.00446 min. 0.994462

--> FOAM Warning : 
    From function nonLinearGeometryUpdatedLagrangian::end()
    in file solidModels/solidModel/solidModel.C at line 1741
    The maximum momentum correctors were reached in 30 time-steps


End

