/*---------------------------------------------------------------------------*\
| =========                 |                                                 |
| \\      /  F ield         | foam-extend: Open Source CFD                    |
|  \\    /   O peration     | Version:     4.1                                |
|   \\  /    A nd           | Web:         http://www.foam-extend.org         |
|    \\/     M anipulation  | For copyright notice see file Copyright         |
\*---------------------------------------------------------------------------*/
Build  : 4.1-70b064d0f326
Exec   : solids4Foam
Date   : Dec 12 2022
Time   : 20:16:03
Host   : "iloliveira"
PID    : 119069
CtrlDict : "/home/iloliveira/foam/solids4foam-fork-fe41/tutorials/solids/hyperelasticity/cylindricalPressureVesselBijelonja/system/controlDict"
Case   : /home/iloliveira/foam/solids4foam-fork-fe41/tutorials/solids/hyperelasticity/cylindricalPressureVesselBijelonja
nProcs : 1
sigFpe : Enabling floating point exception trapping (FOAM_SIGFPE).
allowSystemOperations : Disallowing user-supplied system call operations

// * * * * * * * * * * * * * * * * * * * * * * * * * * * * * * * * * * * * * //
Create time

/*---------------------------------------------------------------------------*\
|    For further information on the solids4Foam toolbox implementations,      |
|    please see the following publications:                                   |
|                                                                             |
|    P. Cardiff, A Karac, P. De Jaeger, H. Jasak, J. Nagy, A. Ivankovic,      |
|    Z. Tukovic: An open-source finite volume toolbox for solid mechanics and |
|    fluid-solid interaction simulations. arXiv:1808.10736v2, 2018, available |
|    at https://arxiv.org/abs/1808.10736.                                     |
|                                                                             |
|    Z. Tukovic, A. Karac, P. Cardiff, H. Jasak, A. Ivankovic: OpenFOAM       |
|    finite volume solver for fluid-solid interaction.  Transactions of       |
|    Famena, 42 (3), pp. 1-31, 2018, 10.21278/TOF.42301.                      |
\*---------------------------------------------------------------------------*/

Selecting physicsModel solidModel
Selecting solidModel nonLinearGeometryTotalLagrangianTotalDisplacement
Selecting dynamicFvMesh staticFvMesh
Creating solidTraction boundary condition
    pressure is time-varying
Creating solidTraction boundary condition
    under-relaxation method: fixed
Creating the mechanicalModel
Selecting mechanical law MooneyRivlinElastic
    Laplacian equation will be solved for pressure
    pressureSmoothingScaleFactor: 100
Material properties 
    max(c10) = 8e+07
    max(c01) = 2e+07
    max(c11) = 0
    max(mu) = 2e+08
    max(K) = 2e+09
Creating disp function object
    region = region0
    distance from specified point is 0
Time = 10

Evolving solid solver
Solving the total Lagrangian form of the momentum equation for D
setCellDisplacements: reading cellDisplacements
    Corr, res, relRes, matRes, iters
    1, 0.0281311, 0.381088, 0, 0
    2, 0.00837641, 0.297028, 0, 0
    3, 0.00952584, 0.156114, 0, 0
    4, 0.0036104, 0.146781, 0, 0
    5, 0.00485239, 0.0847245, 0, 0
    6, 0.00202229, 0.0845207, 0, 0
    7, 0.00284507, 0.0513391, 0, 0
    8, 0.00125996, 0.0523791, 0, 0
    9, 0.00178537, 0.0328835, 0, 0
    10, 0.000821196, 0.0337865, 0, 0
    11, 0.00116211, 0.0217429, 0, 0
    12, 0.000552572, 0.0223357, 0, 0
    13, 0.000778047, 0.0146684, 0, 0
    14, 0.000384653, 0.015009, 0, 0
    15, 0.000533903, 0.0100266, 0, 0
    16, 0.000278557, 0.0101828, 0, 0
    17, 0.000370423, 0.00690389, 0, 0
    18, 0.000201584, 0.00695325, 0, 0
    19, 0.000257448, 0.00478723, 0, 0
    20, 0.000143307, 0.00477028, 0, 0
    21, 0.000178461, 0.0033254, 0, 0
    22, 0.000103248, 0.00328552, 0, 0
    23, 0.000125876, 0.00232138, 0, 0
    24, 7.58406e-05, 0.0022702, 0, 0
    25, 9.01284e-05, 0.0016218, 0, 0
    26, 5.64246e-05, 0.00157559, 0, 0
    27, 6.51541e-05, 0.00113603, 0, 0
    28, 4.21734e-05, 0.00109582, 0, 0
    29, 4.74696e-05, 0.000796346, 0, 0
    30, 3.18404e-05, 0.000763814, 0, 0
    31, 3.49573e-05, 0.000558798, 0, 0
    32, 2.41733e-05, 0.000532486, 0, 0
    33, 2.58964e-05, 0.000392712, 0, 0
    34, 1.85094e-05, 0.000372364, 0, 0
    35, 1.94097e-05, 0.000276447, 0, 0
    36, 1.43481e-05, 0.00026109, 0, 0
    37, 1.47634e-05, 0.00019523, 0, 0
    38, 1.12105e-05, 0.000183727, 0, 0
    39, 1.1321e-05, 0.000138161, 0, 0
    40, 8.80075e-06, 0.000129769, 0, 0
    41, 8.76245e-06, 9.80527e-05, 0, 0
    42, 6.96525e-06, 9.21002e-05, 0, 0
    43, 6.82777e-06, 7.0009e-05, 0, 0
    44, 5.55012e-06, 6.56935e-05, 0, 0
    45, 5.39504e-06, 5.05815e-05, 0, 0
    46, 4.47103e-06, 4.73034e-05, 0, 0
    47, 4.3077e-06, 3.68042e-05, 0, 0
    48, 3.64385e-06, 3.42923e-05, 0, 0
    49, 3.47003e-06, 2.70117e-05, 0, 0
    50, 3.00014e-06, 2.51632e-05, 0, 0
    51, 2.83341e-06, 2.00877e-05, 0, 0
    52, 2.49588e-06, 1.87286e-05, 0, 0
    53, 2.33987e-06, 1.51595e-05, 0, 0
    54, 2.09108e-06, 1.41695e-05, 0, 0
    55, 1.95704e-06, 1.15485e-05, 0, 0
    56, 1.75848e-06, 1.11391e-05, 0, 0
    57, 1.68137e-06, 8.78972e-06, 0, 0
    58, 1.49555e-06, 8.99973e-06, 0, 0
    59, 1.40709e-06, 7.03415e-06, 0, 0
    60, 1.29515e-06, 7.02649e-06, 0, 0
    61, 1.21166e-06, 5.81406e-06, 0, 0
    62, 1.12027e-06, 5.64521e-06, 0, 0
    63, 1.04661e-06, 4.90921e-06, 0, 0
    64, 9.69562e-07, 4.69588e-06, 0, 0
    65, 9.12984e-07, 4.31293e-06, 0, 0
    66, 8.61572e-07, 4.29674e-06, 0, 0
    67, 8.26122e-07, 3.82019e-06, 0, 0
    68, 7.62103e-07, 4.42976e-06, 0, 0
    69, 7.46527e-07, 3.4865e-06, 0, 0
    70, 6.79045e-07, 4.41999e-06, 0, 0
    71, 6.77121e-07, 3.21812e-06, 0, 0
    72, 6.08023e-07, 4.32416e-06, 0, 0
    73, 6.15529e-07, 3.02211e-06, 0, 0
    74, 5.46658e-07, 4.17593e-06, 0, 0
    75, 5.60546e-07, 2.90181e-06, 0, 0
    76, 4.93408e-07, 3.9975e-06, 0, 0
    77, 5.12561e-07, 3.11044e-06, 0, 0
    78, 4.53039e-07, 3.91024e-06, 0, 0
    79, 4.7002e-07, 2.93421e-06, 0, 0
    80, 4.12091e-07, 3.68032e-06, 0, 0
    81, 4.2841e-07, 2.77311e-06, 0, 0
    82, 3.76795e-07, 3.46266e-06, 0, 0
    83, 3.91694e-07, 2.62431e-06, 0, 0
    84, 3.45817e-07, 3.25595e-06, 0, 0
    85, 3.59164e-07, 2.48332e-06, 0, 0
    86, 3.1834e-07, 3.06085e-06, 0, 0
    87, 3.30089e-07, 2.34905e-06, 0, 0
    88, 2.93899e-07, 2.87674e-06, 0, 0
    89, 3.03892e-07, 2.2229e-06, 0, 0
    90, 2.72213e-07, 2.70323e-06, 0, 0
    91, 2.80058e-07, 2.10403e-06, 0, 0
    92, 2.52637e-07, 2.54029e-06, 0, 0
    93, 2.58409e-07, 1.99136e-06, 0, 0
    94, 2.34899e-07, 2.3874e-06, 0, 0
    95, 2.39019e-07, 1.88579e-06, 0, 0
    96, 2.1868e-07, 2.24385e-06, 0, 0
    97, 2.21363e-07, 1.78694e-06, 0, 0
    98, 2.03759e-07, 2.10515e-06, 0, 0
    99, 2.04854e-07, 1.69573e-06, 0, 0
    100, 1.90287e-07, 1.97901e-06, 0, 0
    101, 1.9025e-07, 1.60814e-06, 0, 0
    102, 1.77902e-07, 1.86016e-06, 0, 0
    103, 1.77006e-07, 1.52481e-06, 0, 0
    104, 1.66473e-07, 1.74887e-06, 0, 0
    105, 1.64862e-07, 1.44543e-06, 0, 0
    106, 1.55916e-07, 1.64449e-06, 0, 0
    107, 1.5375e-07, 1.3698e-06, 0, 0
    108, 1.46137e-07, 1.54649e-06, 0, 0
    109, 1.43481e-07, 1.295e-06, 0, 0
    110, 1.3678e-07, 1.45414e-06, 0, 0
    111, 1.34098e-07, 1.22717e-06, 0, 0
    112, 1.28308e-07, 1.36801e-06, 0, 0
    113, 1.25425e-07, 1.16267e-06, 0, 0
    114, 1.20413e-07, 1.28702e-06, 0, 0
    115, 1.1739e-07, 1.10122e-06, 0, 0
    116, 1.13064e-07, 1.21101e-06, 0, 0
    117, 1.1001e-07, 1.04273e-06, 0, 0
    118, 1.06196e-07, 1.13965e-06, 0, 0
    Both residuals have converged
    119, 1.03158e-07, 9.85534e-07, 0, 0

Max sigmaEq (von Mises stress) = 1.98151e+07
ExecutionTime = 0.24 s  ClockTime = 0 s

Time = 20

Evolving solid solver
Solving the total Lagrangian form of the momentum equation for D
    Corr, res, relRes, matRes, iters
    1, 0.00533038, 0.389792, 0, 0
    2, 0.00209632, 0.299435, 0, 0
    3, 0.00309352, 0.163107, 0, 0
    4, 0.00136255, 0.149713, 0, 0
    5, 0.00193269, 0.0902865, 0, 0
    6, 0.000910477, 0.0874153, 0, 0
    7, 0.00126789, 0.0557705, 0, 0
    8, 0.000621987, 0.0549715, 0, 0
    9, 0.000851553, 0.0364287, 0, 0
    10, 0.000431471, 0.0360512, 0, 0
    11, 0.000580506, 0.0245828, 0, 0
    12, 0.000306311, 0.0242669, 0, 0
    13, 0.000404631, 0.0169221, 0, 0
    14, 0.000228252, 0.0166404, 0, 0
    15, 0.000287228, 0.0118271, 0, 0
    16, 0.00016699, 0.0115267, 0, 0
    17, 0.000201726, 0.00833263, 0, 0
    18, 0.000121588, 0.00804552, 0, 0
    19, 0.000142917, 0.00591651, 0, 0
    20, 8.84657e-05, 0.00565182, 0, 0
    21, 0.000101866, 0.00420998, 0, 0
    22, 6.55618e-05, 0.00398327, 0, 0
    23, 7.36225e-05, 0.00300722, 0, 0
    24, 4.90204e-05, 0.00281809, 0, 0
    25, 5.36124e-05, 0.00214924, 0, 0
    26, 3.683e-05, 0.0020003, 0, 0
    27, 3.92133e-05, 0.00153642, 0, 0
    28, 2.77256e-05, 0.00142361, 0, 0
    29, 2.88064e-05, 0.00110006, 0, 0
    30, 2.07594e-05, 0.00101431, 0, 0
    31, 2.11402e-05, 0.000788861, 0, 0
    32, 1.55998e-05, 0.000723595, 0, 0
    33, 1.5704e-05, 0.000566638, 0, 0
    34, 1.18958e-05, 0.000517239, 0, 0
    35, 1.18335e-05, 0.000408131, 0, 0
    36, 9.16873e-06, 0.000370371, 0, 0
    37, 8.99306e-06, 0.00029429, 0, 0
    38, 7.11871e-06, 0.000265812, 0, 0
    39, 6.89711e-06, 0.000212315, 0, 0
    40, 5.55838e-06, 0.000190976, 0, 0
    41, 5.32747e-06, 0.000153136, 0, 0
    42, 4.3766e-06, 0.000137795, 0, 0
    43, 4.16199e-06, 0.000111142, 0, 0
    44, 3.46827e-06, 9.9757e-05, 0, 0
    45, 3.26743e-06, 8.05749e-05, 0, 0
    46, 2.76006e-06, 7.22251e-05, 0, 0
    47, 2.58726e-06, 5.8733e-05, 0, 0
    48, 2.21287e-06, 5.26636e-05, 0, 0
    49, 2.06982e-06, 4.32024e-05, 0, 0
    50, 1.79164e-06, 3.85938e-05, 0, 0
    51, 1.67084e-06, 3.19209e-05, 0, 0
    52, 1.46213e-06, 2.85054e-05, 0, 0
    53, 1.35927e-06, 2.37937e-05, 0, 0
    54, 1.20007e-06, 2.12667e-05, 0, 0
    55, 1.1125e-06, 1.79125e-05, 0, 0
    56, 9.92303e-07, 1.60276e-05, 0, 0
    57, 9.19278e-07, 1.36254e-05, 0, 0
    58, 8.30191e-07, 1.22119e-05, 0, 0
    59, 7.70007e-07, 1.04897e-05, 0, 0
    60, 7.03222e-07, 9.42623e-06, 0, 0
    61, 6.53065e-07, 8.13495e-06, 0, 0
    62, 5.95897e-07, 7.54362e-06, 0, 0
    63, 5.58958e-07, 6.49216e-06, 0, 0
    64, 5.17625e-07, 5.98718e-06, 0, 0
    65, 4.82013e-07, 5.23208e-06, 0, 0
    66, 4.46959e-07, 4.79518e-06, 0, 0
    67, 4.16011e-07, 4.2906e-06, 0, 0
    68, 3.86113e-07, 3.97145e-06, 0, 0
    69, 3.60771e-07, 3.60915e-06, 0, 0
    70, 3.36394e-07, 3.34885e-06, 0, 0
    71, 3.20327e-07, 3.13879e-06, 0, 0
    72, 3.02346e-07, 3.19012e-06, 0, 0
    73, 2.92244e-07, 2.82275e-06, 0, 0
    74, 2.71514e-07, 3.30291e-06, 0, 0
    75, 2.66775e-07, 2.59026e-06, 0, 0
    76, 2.44792e-07, 3.29125e-06, 0, 0
    77, 2.43702e-07, 2.39429e-06, 0, 0
    78, 2.20947e-07, 3.21889e-06, 0, 0
    79, 2.2295e-07, 2.27986e-06, 0, 0
    80, 2.00243e-07, 3.10829e-06, 0, 0
    81, 2.03868e-07, 2.17072e-06, 0, 0
    82, 1.82189e-07, 2.97175e-06, 0, 0
    83, 1.86292e-07, 2.07091e-06, 0, 0
    84, 1.66075e-07, 2.82634e-06, 0, 0
    85, 1.71251e-07, 2.19971e-06, 0, 0
    86, 1.54002e-07, 2.74898e-06, 0, 0
    87, 1.57904e-07, 2.08038e-06, 0, 0
    88, 1.41399e-07, 2.58172e-06, 0, 0
    89, 1.44566e-07, 1.96508e-06, 0, 0
    90, 1.30175e-07, 2.42303e-06, 0, 0
    91, 1.32695e-07, 1.85529e-06, 0, 0
    92, 1.20112e-07, 2.27269e-06, 0, 0
    93, 1.21991e-07, 1.75163e-06, 0, 0
    94, 1.10965e-07, 2.131e-06, 0, 0
    95, 1.12281e-07, 1.65372e-06, 0, 0
    96, 1.02715e-07, 1.99768e-06, 0, 0
    97, 1.03446e-07, 1.56049e-06, 0, 0
    The solver residual has converged
    98, 9.52734e-08, 1.87247e-06, 0, 0

Max sigmaEq (von Mises stress) = 4.05324e+07
ExecutionTime = 0.43 s  ClockTime = 0 s

Time = 30

Evolving solid solver
Solving the total Lagrangian form of the momentum equation for D
    Corr, res, relRes, matRes, iters
    1, 0.00284714, 0.398944, 0, 0
    2, 0.00125374, 0.301922, 0, 0
    3, 0.00182951, 0.17004, 0, 0
    4, 0.000883922, 0.152714, 0, 0
    5, 0.00121206, 0.0957107, 0, 0
    6, 0.000626265, 0.0904213, 0, 0
    7, 0.000831483, 0.0601155, 0, 0
    8, 0.000443148, 0.0576444, 0, 0
    9, 0.000575979, 0.0399115, 0, 0
    10, 0.000318115, 0.0384249, 0, 0
    11, 0.000402837, 0.0274054, 0, 0
    12, 0.000236966, 0.0263446, 0, 0
    13, 0.000290156, 0.0192498, 0, 0
    14, 0.000177127, 0.018388, 0, 0
    15, 0.000208264, 0.0137111, 0, 0
    16, 0.000132661, 0.0129959, 0, 0
    17, 0.000149939, 0.00986235, 0, 0
    18, 9.82541e-05, 0.00925981, 0, 0
    19, 0.000108151, 0.00714472, 0, 0
    20, 7.26073e-05, 0.00663911, 0, 0
    21, 7.84346e-05, 0.00519016, 0, 0
    22, 5.46239e-05, 0.00478139, 0, 0
    23, 5.76935e-05, 0.00378036, 0, 0
    24, 4.17833e-05, 0.0034594, 0, 0
    25, 4.30287e-05, 0.00275438, 0, 0
    26, 3.18663e-05, 0.00251008, 0, 0
    27, 3.20634e-05, 0.00201143, 0, 0
    28, 2.41779e-05, 0.0018248, 0, 0
    29, 2.38651e-05, 0.00147117, 0, 0
    30, 1.83207e-05, 0.00132876, 0, 0
    31, 1.78755e-05, 0.00107783, 0, 0
    32, 1.39675e-05, 0.000968949, 0, 0
    33, 1.34956e-05, 0.000790546, 0, 0
    34, 1.07303e-05, 0.000707497, 0, 0
    35, 1.02688e-05, 0.00058076, 0, 0
    36, 8.31682e-06, 0.000517238, 0, 0
    37, 7.86795e-06, 0.000426911, 0, 0
    38, 6.46645e-06, 0.000378418, 0, 0
    39, 6.0395e-06, 0.000313973, 0, 0
    40, 5.02723e-06, 0.000277304, 0, 0
    41, 4.64839e-06, 0.00023086, 0, 0
    42, 3.91329e-06, 0.000203347, 0, 0
    43, 3.59884e-06, 0.000170199, 0, 0
    44, 3.07527e-06, 0.000149662, 0, 0
    45, 2.81953e-06, 0.000125761, 0, 0
    46, 2.4377e-06, 0.00011023, 0, 0
    47, 2.22601e-06, 9.2809e-05, 0, 0
    48, 1.94272e-06, 8.13189e-05, 0, 0
    49, 1.77012e-06, 6.86754e-05, 0, 0
    50, 1.55688e-06, 6.02466e-05, 0, 0
    51, 1.41948e-06, 5.11262e-05, 0, 0
    52, 1.25439e-06, 4.47929e-05, 0, 0
    53, 1.14546e-06, 3.81399e-05, 0, 0
    54, 1.0142e-06, 3.34794e-05, 0, 0
    55, 9.26827e-07, 2.85849e-05, 0, 0
    56, 8.26518e-07, 2.51624e-05, 0, 0
    57, 7.56725e-07, 2.15683e-05, 0, 0
    58, 6.78285e-07, 1.90385e-05, 0, 0
    59, 6.22561e-07, 1.63995e-05, 0, 0
    60, 5.61252e-07, 1.45109e-05, 0, 0
    61, 5.16902e-07, 1.2553e-05, 0, 0
    62, 4.69455e-07, 1.1152e-05, 0, 0
    63, 4.34071e-07, 9.70631e-06, 0, 0
    64, 3.9678e-07, 8.6606e-06, 0, 0
    65, 3.67897e-07, 7.58636e-06, 0, 0
    66, 3.38119e-07, 6.82117e-06, 0, 0
    67, 3.13936e-07, 5.97334e-06, 0, 0
    68, 2.85737e-07, 5.53822e-06, 0, 0
    69, 2.68794e-07, 4.82401e-06, 0, 0
    70, 2.49595e-07, 4.44263e-06, 0, 0
    71, 2.32888e-07, 3.91507e-06, 0, 0
    72, 2.16228e-07, 3.60336e-06, 0, 0
    73, 2.02023e-07, 3.24443e-06, 0, 0
    74, 1.88476e-07, 2.99209e-06, 0, 0
    75, 1.76614e-07, 2.72602e-06, 0, 0
    76, 1.65056e-07, 2.534e-06, 0, 0
    77, 1.53335e-07, 2.37843e-06, 0, 0
    78, 1.4979e-07, 2.35712e-06, 0, 0
    79, 1.40623e-07, 2.14107e-06, 0, 0
    80, 1.35245e-07, 2.42747e-06, 0, 0
    81, 1.28888e-07, 1.95397e-06, 0, 0
    82, 1.22586e-07, 2.42673e-06, 0, 0
    83, 1.18383e-07, 1.80076e-06, 0, 0
    84, 1.11438e-07, 2.37288e-06, 0, 0
    85, 1.08311e-07, 1.6936e-06, 0, 0
    86, 1.01331e-07, 2.29046e-06, 0, 0
    The solver residual has converged
    87, 9.90262e-08, 1.59692e-06, 0, 0

Max sigmaEq (von Mises stress) = 6.23194e+07
ExecutionTime = 0.61 s  ClockTime = 0 s

Time = 40

Evolving solid solver
Solving the total Lagrangian form of the momentum equation for D
    Corr, res, relRes, matRes, iters
    1, 0.00189655, 0.40867, 0, 0
    2, 0.000923919, 0.3047, 0, 0
    3, 0.00129037, 0.177083, 0, 0
    4, 0.000676706, 0.155943, 0, 0
    5, 0.000890252, 0.101069, 0, 0
    6, 0.000498174, 0.0934052, 0, 0
    7, 0.000628789, 0.0643443, 0, 0
    8, 0.000362239, 0.0603861, 0, 0
    9, 0.000446273, 0.0433754, 0, 0
    10, 0.000268938, 0.0408315, 0, 0
    11, 0.000319034, 0.0302423, 0, 0
    12, 0.000206369, 0.0284589, 0, 0
    13, 0.000235626, 0.0216126, 0, 0
    14, 0.00015664, 0.0202282, 0, 0
    15, 0.000172288, 0.015673, 0, 0
    16, 0.000118297, 0.01457, 0, 0
    17, 0.000126546, 0.0114808, 0, 0
    18, 8.9173e-05, 0.0105887, 0, 0
    19, 9.30944e-05, 0.0084496, 0, 0
    20, 6.73529e-05, 0.00774555, 0, 0
    21, 6.93875e-05, 0.00625386, 0, 0
    22, 5.18471e-05, 0.00569626, 0, 0
    23, 5.23137e-05, 0.00464323, 0, 0
    24, 4.01784e-05, 0.00420399, 0, 0
    25, 3.94864e-05, 0.00345307, 0, 0
    26, 3.06779e-05, 0.00310881, 0, 0
    27, 2.96621e-05, 0.00257207, 0, 0
    28, 2.34059e-05, 0.00230622, 0, 0
    29, 2.23583e-05, 0.0019189, 0, 0
    30, 1.79626e-05, 0.00171451, 0, 0
    31, 1.70309e-05, 0.00143567, 0, 0
    32, 1.39204e-05, 0.00127636, 0, 0
    33, 1.30437e-05, 0.00107398, 0, 0
    34, 1.08535e-05, 0.000951518, 0, 0
    35, 1.00799e-05, 0.000803661, 0, 0
    36, 8.47531e-06, 0.000710076, 0, 0
    37, 7.80526e-06, 0.000601256, 0, 0
    38, 6.60052e-06, 0.000530538, 0, 0
    39, 6.04261e-06, 0.000450028, 0, 0
    40, 5.13057e-06, 0.000396907, 0, 0
    41, 4.68523e-06, 0.000337078, 0, 0
    42, 3.99619e-06, 0.000297274, 0, 0
    43, 3.65029e-06, 0.000252546, 0, 0
    44, 3.13607e-06, 0.000222996, 0, 0
    45, 2.86764e-06, 0.000189345, 0, 0
    46, 2.47629e-06, 0.000167209, 0, 0
    47, 2.26907e-06, 0.000142185, 0, 0
    48, 1.96836e-06, 0.000125682, 0, 0
    49, 1.8046e-06, 0.000106905, 0, 0
    50, 1.57069e-06, 9.45446e-05, 0, 0
    51, 1.43917e-06, 8.03915e-05, 0, 0
    52, 1.2567e-06, 7.11657e-05, 0, 0
    53, 1.15062e-06, 6.05775e-05, 0, 0
    54, 1.00997e-06, 5.37393e-05, 0, 0
    55, 9.25613e-07, 4.59039e-05, 0, 0
    56, 8.15954e-07, 4.06643e-05, 0, 0
    57, 7.50109e-07, 3.48212e-05, 0, 0
    58, 6.63347e-07, 3.08776e-05, 0, 0
    59, 6.1097e-07, 2.6476e-05, 0, 0
    60, 5.43673e-07, 2.35373e-05, 0, 0
    61, 5.01524e-07, 2.02479e-05, 0, 0
    62, 4.48455e-07, 1.8037e-05, 0, 0
    63, 4.1432e-07, 1.55616e-05, 0, 0
    64, 3.72401e-07, 1.3897e-05, 0, 0
    65, 3.44719e-07, 1.20395e-05, 0, 0
    66, 3.11402e-07, 1.07729e-05, 0, 0
    67, 2.88643e-07, 9.36429e-06, 0, 0
    68, 2.62038e-07, 8.40297e-06, 0, 0
    69, 2.43563e-07, 7.3352e-06, 0, 0
    70, 2.22154e-07, 6.60755e-06, 0, 0
    71, 2.07057e-07, 5.80392e-06, 0, 0
    72, 1.8996e-07, 5.25724e-06, 0, 0
    73, 1.77169e-07, 4.63414e-06, 0, 0
    74, 1.60069e-07, 4.28206e-06, 0, 0
    75, 1.56546e-07, 3.64068e-06, 0, 0
    76, 1.3757e-07, 3.56112e-06, 0, 0
    77, 1.31055e-07, 2.96757e-06, 0, 0
    78, 1.21316e-07, 2.87123e-06, 0, 0
    79, 1.14244e-07, 2.48303e-06, 0, 0
    80, 1.06425e-07, 2.34906e-06, 0, 0
    81, 1.00065e-07, 2.10529e-06, 0, 0
    The solver residual has converged
    82, 9.35026e-08, 1.97678e-06, 0, 0

Max sigmaEq (von Mises stress) = 8.53836e+07
ExecutionTime = 0.77 s  ClockTime = 0 s

Time = 50

Evolving solid solver
Solving the total Lagrangian form of the momentum equation for D
    Corr, res, relRes, matRes, iters
    1, 0.00139594, 0.419117, 0, 0
    2, 0.000747216, 0.307426, 0, 0
    3, 0.000992928, 0.184353, 0, 0
    4, 0.000560228, 0.159026, 0, 0
    5, 0.000706454, 0.10627, 0, 0
    6, 0.000424287, 0.0963242, 0, 0
    7, 0.000511659, 0.0684596, 0, 0
    8, 0.000314688, 0.0630644, 0, 0
    9, 0.000368119, 0.0467117, 0, 0
    10, 0.000241451, 0.0433283, 0, 0
    11, 0.000271472, 0.033023, 0, 0
    12, 0.000186474, 0.0306826, 0, 0
    13, 0.000204046, 0.0239537, 0, 0
    14, 0.000144944, 0.0222408, 0, 0
    15, 0.000153142, 0.0176622, 0, 0
    16, 0.000110457, 0.0162932, 0, 0
    17, 0.00011497, 0.0131549, 0, 0
    18, 8.52136e-05, 0.012042, 0, 0
    19, 8.66284e-05, 0.00985753, 0, 0
    20, 6.56603e-05, 0.00896079, 0, 0
    21, 6.54715e-05, 0.00742019, 0, 0
    22, 5.14598e-05, 0.00671297, 0, 0
    23, 5.01492e-05, 0.00560848, 0, 0
    24, 4.01484e-05, 0.00504733, 0, 0
    25, 3.81692e-05, 0.00425072, 0, 0
    26, 3.10093e-05, 0.00381275, 0, 0
    27, 2.9057e-05, 0.00322759, 0, 0
    28, 2.38259e-05, 0.00288609, 0, 0
    29, 2.22441e-05, 0.0024555, 0, 0
    30, 1.83832e-05, 0.00218935, 0, 0
    31, 1.71795e-05, 0.00186749, 0, 0
    32, 1.43538e-05, 0.0016643, 0, 0
    33, 1.34052e-05, 0.00142123, 0, 0
    34, 1.12667e-05, 0.00126607, 0, 0
    35, 1.04923e-05, 0.00108157, 0, 0
    36, 8.84629e-06, 0.000964379, 0, 0
    37, 8.20934e-06, 0.000824271, 0, 0
    38, 6.93223e-06, 0.0007352, 0, 0
    39, 6.42912e-06, 0.000628744, 0, 0
    40, 5.42936e-06, 0.000560755, 0, 0
    41, 5.03505e-06, 0.000479595, 0, 0
    42, 4.27687e-06, 0.000428064, 0, 0
    43, 3.96499e-06, 0.00036594, 0, 0
    44, 3.3783e-06, 0.000327126, 0, 0
    45, 3.12888e-06, 0.000279751, 0, 0
    46, 2.67557e-06, 0.000249715, 0, 0
    47, 2.47844e-06, 0.000214049, 0, 0
    48, 2.12434e-06, 0.000191077, 0, 0
    49, 1.96799e-06, 0.00016354, 0, 0
    50, 1.69053e-06, 0.000146247, 0, 0
    51, 1.56562e-06, 0.000125266, 0, 0
    52, 1.35161e-06, 0.000112041, 0, 0
    53, 1.25095e-06, 9.60089e-05, 0, 0
    54, 1.08221e-06, 8.59317e-05, 0, 0
    55, 1.00297e-06, 7.36707e-05, 0, 0
    56, 8.71882e-07, 6.58459e-05, 0, 0
    57, 8.07931e-07, 5.64612e-05, 0, 0
    58, 7.05669e-07, 5.06023e-05, 0, 0
    59, 6.552e-07, 4.34675e-05, 0, 0
    60, 5.75421e-07, 3.89684e-05, 0, 0
    61, 5.34139e-07, 3.35569e-05, 0, 0
    62, 4.69909e-07, 3.00744e-05, 0, 0
    63, 4.36102e-07, 2.59071e-05, 0, 0
    64, 3.85661e-07, 2.32545e-05, 0, 0
    65, 3.58047e-07, 2.00792e-05, 0, 0
    66, 3.18146e-07, 1.80446e-05, 0, 0
    67, 2.95779e-07, 1.56146e-05, 0, 0
    68, 2.64217e-07, 1.40507e-05, 0, 0
    69, 2.46033e-07, 1.21891e-05, 0, 0
    70, 2.20887e-07, 1.09864e-05, 0, 0
    71, 2.05958e-07, 9.5582e-06, 0, 0
    72, 1.85795e-07, 8.63139e-06, 0, 0
    73, 1.73381e-07, 7.53299e-06, 0, 0
    74, 1.57032e-07, 6.81648e-06, 0, 0
    75, 1.46675e-07, 5.96959e-06, 0, 0
    76, 1.33432e-07, 5.41465e-06, 0, 0
    77, 1.24851e-07, 4.76047e-06, 0, 0
    78, 1.1412e-07, 4.32562e-06, 0, 0
    79, 1.06593e-07, 3.81903e-06, 0, 0
    The solver residual has converged
    80, 9.74729e-08, 3.48676e-06, 0, 0

Max sigmaEq (von Mises stress) = 1.09983e+08
ExecutionTime = 0.94 s  ClockTime = 1 s

Time = 60

Evolving solid solver
Solving the total Lagrangian form of the momentum equation for D
    Corr, res, relRes, matRes, iters
    1, 0.00108727, 0.430441, 0, 0
    2, 0.000636704, 0.310839, 0, 0
    3, 0.000802812, 0.191673, 0, 0
    4, 0.000486398, 0.162153, 0, 0
    5, 0.000588405, 0.111402, 0, 0
    6, 0.000377111, 0.0991421, 0, 0
    7, 0.000435041, 0.0724957, 0, 0
    8, 0.0002843, 0.065679, 0, 0
    9, 0.000318386, 0.0500551, 0, 0
    10, 0.000223794, 0.0457769, 0, 0
    11, 0.000241446, 0.0358947, 0, 0
    12, 0.000177179, 0.0329722, 0, 0
    13, 0.000186246, 0.0264572, 0, 0
    14, 0.000139279, 0.0242548, 0, 0
    15, 0.000142671, 0.0198211, 0, 0
    16, 0.000109322, 0.0180649, 0, 0
    17, 0.000109237, 0.0149688, 0, 0
    18, 8.56159e-05, 0.0135763, 0, 0
    19, 8.37481e-05, 0.0113844, 0, 0
    20, 6.7634e-05, 0.010286, 0, 0
    21, 6.50578e-05, 0.00871173, 0, 0
    22, 5.35582e-05, 0.00785058, 0, 0
    23, 5.08352e-05, 0.00669091, 0, 0
    24, 4.22155e-05, 0.0060241, 0, 0
    25, 3.97869e-05, 0.00515456, 0, 0
    26, 3.3059e-05, 0.00463794, 0, 0
    27, 3.1053e-05, 0.00397558, 0, 0
    28, 2.60053e-05, 0.00358077, 0, 0
    29, 2.44743e-05, 0.00307423, 0, 0
    30, 2.05055e-05, 0.00276886, 0, 0
    31, 1.92792e-05, 0.00237909, 0, 0
    32, 1.62472e-05, 0.0021455, 0, 0
    33, 1.53085e-05, 0.00184419, 0, 0
    34, 1.2907e-05, 0.00166358, 0, 0
    35, 1.21474e-05, 0.00143093, 0, 0
    36, 1.02554e-05, 0.00129131, 0, 0
    37, 9.64953e-06, 0.00111151, 0, 0
    38, 8.13812e-06, 0.00100308, 0, 0
    39, 7.66262e-06, 0.00086315, 0, 0
    40, 6.49618e-06, 0.000779392, 0, 0
    41, 6.11809e-06, 0.000671281, 0, 0
    42, 5.1986e-06, 0.000606015, 0, 0
    43, 4.89031e-06, 0.000522241, 0, 0
    44, 4.16978e-06, 0.000471395, 0, 0
    45, 3.92045e-06, 0.000406223, 0, 0
    46, 3.35322e-06, 0.000367084, 0, 0
    47, 3.14532e-06, 0.000316463, 0, 0
    48, 2.69696e-06, 0.000285962, 0, 0
    49, 2.52944e-06, 0.00024654, 0, 0
    50, 2.17343e-06, 0.000222866, 0, 0
    51, 2.03493e-06, 0.000192173, 0, 0
    52, 1.75278e-06, 0.000173755, 0, 0
    53, 1.63941e-06, 0.000149867, 0, 0
    54, 1.41548e-06, 0.000135533, 0, 0
    55, 1.32283e-06, 0.000116943, 0, 0
    56, 1.14464e-06, 0.000105788, 0, 0
    57, 1.06884e-06, 9.12457e-05, 0, 0
    58, 9.27321e-07, 8.25651e-05, 0, 0
    59, 8.66179e-07, 7.12925e-05, 0, 0
    60, 7.54018e-07, 6.45655e-05, 0, 0
    61, 7.03819e-07, 5.5737e-05, 0, 0
    62, 6.14549e-07, 5.04927e-05, 0, 0
    63, 5.73167e-07, 4.35454e-05, 0, 0
    64, 5.02634e-07, 3.94872e-05, 0, 0
    65, 4.69391e-07, 3.41313e-05, 0, 0
    66, 4.12038e-07, 3.0941e-05, 0, 0
    67, 3.84753e-07, 2.6775e-05, 0, 0
    68, 3.38922e-07, 2.42852e-05, 0, 0
    69, 3.16343e-07, 2.10408e-05, 0, 0
    70, 2.79739e-07, 1.90763e-05, 0, 0
    71, 2.61084e-07, 1.65568e-05, 0, 0
    72, 2.31891e-07, 1.50251e-05, 0, 0
    73, 2.16531e-07, 1.30632e-05, 0, 0
    74, 1.93184e-07, 1.18595e-05, 0, 0
    75, 1.80717e-07, 1.03133e-05, 0, 0
    76, 1.61349e-07, 9.38212e-06, 0, 0
    77, 1.50695e-07, 8.19639e-06, 0, 0
    78, 1.35274e-07, 7.46345e-06, 0, 0
    79, 1.2645e-07, 6.52929e-06, 0, 0
    80, 1.13934e-07, 5.95001e-06, 0, 0
    81, 1.06579e-07, 5.21502e-06, 0, 0
    The solver residual has converged
    82, 9.63739e-08, 4.75835e-06, 0, 0

Max sigmaEq (von Mises stress) = 1.36441e+08
ExecutionTime = 1.11 s  ClockTime = 1 s

Time = 70

Evolving solid solver
Solving the total Lagrangian form of the momentum equation for D
    Corr, res, relRes, matRes, iters
    1, 0.000879344, 0.442689, 0, 0
    2, 0.000562443, 0.314773, 0, 0
    3, 0.000671231, 0.198994, 0, 0
    4, 0.000437328, 0.165239, 0, 0
    5, 0.000506085, 0.116397, 0, 0
    6, 0.000344324, 0.102028, 0, 0
    7, 0.000381523, 0.0765042, 0, 0
    8, 0.000263421, 0.0683866, 0, 0
    9, 0.0002856, 0.0534511, 0, 0
    10, 0.000212078, 0.0483443, 0, 0
    11, 0.000222752, 0.0388534, 0, 0
    12, 0.000170759, 0.035385, 0, 0
    13, 0.000175269, 0.0290437, 0, 0
    14, 0.000135975, 0.0264028, 0, 0
    15, 0.000136588, 0.0220387, 0, 0
    16, 0.000108625, 0.0199716, 0, 0
    17, 0.0001067, 0.0168689, 0, 0
    18, 8.66129e-05, 0.0152624, 0, 0
    19, 8.39309e-05, 0.0130004, 0, 0
    20, 6.95643e-05, 0.0117782, 0, 0
    21, 6.6854e-05, 0.0100914, 0, 0
    22, 5.56042e-05, 0.00915149, 0, 0
    23, 5.33069e-05, 0.00787669, 0, 0
    24, 4.42152e-05, 0.00714488, 0, 0
    25, 4.2315e-05, 0.00616175, 0, 0
    26, 3.52175e-05, 0.00559991, 0, 0
    27, 3.37234e-05, 0.00483544, 0, 0
    28, 2.81501e-05, 0.00440011, 0, 0
    29, 2.69888e-05, 0.00380288, 0, 0
    30, 2.25858e-05, 0.00346426, 0, 0
    31, 2.16269e-05, 0.00299577, 0, 0
    32, 1.82173e-05, 0.00273308, 0, 0
    33, 1.74159e-05, 0.00236551, 0, 0
    34, 1.46232e-05, 0.00215752, 0, 0
    35, 1.39845e-05, 0.0018686, 0, 0
    36, 1.17593e-05, 0.0017054, 0, 0
    37, 1.12492e-05, 0.00147753, 0, 0
    38, 9.47039e-06, 0.00134885, 0, 0
    39, 9.03926e-06, 0.00116863, 0, 0
    40, 7.65474e-06, 0.00106782, 0, 0
    41, 7.30058e-06, 0.000925793, 0, 0
    42, 6.16788e-06, 0.000845404, 0, 0
    43, 5.88196e-06, 0.000733026, 0, 0
    44, 4.9938e-06, 0.000669991, 0, 0
    45, 4.76805e-06, 0.000581369, 0, 0
    46, 4.04543e-06, 0.00053089, 0, 0
    47, 3.85397e-06, 0.000460673, 0, 0
    48, 3.28881e-06, 0.000421272, 0, 0
    49, 3.1248e-06, 0.000365521, 0, 0
    50, 2.67038e-06, 0.000334212, 0, 0
    51, 2.53603e-06, 0.000290164, 0, 0
    52, 2.16508e-06, 0.000265201, 0, 0
    53, 2.05489e-06, 0.000230259, 0, 0
    54, 1.76171e-06, 0.000210652, 0, 0
    55, 1.67157e-06, 0.000182913, 0, 0
    56, 1.43179e-06, 0.000167257, 0, 0
    57, 1.35624e-06, 0.000145254, 0, 0
    58, 1.16696e-06, 0.000132931, 0, 0
    59, 1.10509e-06, 0.000115483, 0, 0
    60, 9.50322e-07, 0.00010562, 0, 0
    61, 8.98747e-07, 9.18092e-05, 0, 0
    62, 7.77173e-07, 8.40007e-05, 0, 0
    63, 7.33489e-07, 7.30343e-05, 0, 0
    64, 6.34055e-07, 6.67428e-05, 0, 0
    65, 5.98604e-07, 5.80937e-05, 0, 0
    66, 5.203e-07, 5.31649e-05, 0, 0
    67, 4.9026e-07, 4.62778e-05, 0, 0
    68, 4.27153e-07, 4.23289e-05, 0, 0
    69, 4.02111e-07, 3.68382e-05, 0, 0
    70, 3.51302e-07, 3.37044e-05, 0, 0
    71, 3.30404e-07, 2.93211e-05, 0, 0
    72, 2.89467e-07, 2.68287e-05, 0, 0
    73, 2.72353e-07, 2.33797e-05, 0, 0
    74, 2.39504e-07, 2.1423e-05, 0, 0
    75, 2.25105e-07, 1.86799e-05, 0, 0
    76, 1.98451e-07, 1.71117e-05, 0, 0
    77, 1.86454e-07, 1.49309e-05, 0, 0
    78, 1.64796e-07, 1.36708e-05, 0, 0
    79, 1.54948e-07, 1.19437e-05, 0, 0
    80, 1.37419e-07, 1.09408e-05, 0, 0
    81, 1.29403e-07, 9.57823e-06, 0, 0
    82, 1.15205e-07, 8.76197e-06, 0, 0
    83, 1.08089e-07, 7.67966e-06, 0, 0
    The solver residual has converged
    84, 9.62302e-08, 7.05408e-06, 0, 0

Max sigmaEq (von Mises stress) = 1.65177e+08
ExecutionTime = 1.29 s  ClockTime = 1 s

Time = 80

Evolving solid solver
Solving the total Lagrangian form of the momentum equation for D
    Corr, res, relRes, matRes, iters
    1, 0.000730571, 0.456426, 0, 0
    2, 0.000507928, 0.318844, 0, 0
    3, 0.00057357, 0.206423, 0, 0
    4, 0.00040028, 0.168027, 0, 0
    5, 0.000445933, 0.121481, 0, 0
    6, 0.000319738, 0.104757, 0, 0
    7, 0.000340527, 0.0805138, 0, 0
    8, 0.000249167, 0.0710913, 0, 0
    9, 0.000260179, 0.0568823, 0, 0
    10, 0.000204339, 0.0509432, 0, 0
    11, 0.000208087, 0.0419301, 0, 0
    12, 0.000168006, 0.0377936, 0, 0
    13, 0.000165977, 0.0317347, 0, 0
    14, 0.000135684, 0.0286568, 0, 0
    15, 0.000131702, 0.0243183, 0, 0
    16, 0.000108822, 0.0220329, 0, 0
    17, 0.000105511, 0.018826, 0, 0
    18, 8.76961e-05, 0.0171212, 0, 0
    19, 8.49686e-05, 0.0146969, 0, 0
    20, 7.14832e-05, 0.0134342, 0, 0
    21, 6.90362e-05, 0.0115769, 0, 0
    22, 5.80525e-05, 0.0106095, 0, 0
    23, 5.59573e-05, 0.00917971, 0, 0
    24, 4.684e-05, 0.00841753, 0, 0
    25, 4.51018e-05, 0.00730246, 0, 0
    26, 3.79072e-05, 0.00670409, 0, 0
    27, 3.65928e-05, 0.00582708, 0, 0
    28, 3.07821e-05, 0.00535319, 0, 0
    29, 2.97355e-05, 0.00466098, 0, 0
    30, 2.50918e-05, 0.00428593, 0, 0
    31, 2.42408e-05, 0.00373707, 0, 0
    32, 2.04461e-05, 0.0034368, 0, 0
    33, 1.97578e-05, 0.00300124, 0, 0
    34, 1.66679e-05, 0.00276124, 0, 0
    35, 1.60892e-05, 0.00241315, 0, 0
    36, 1.35805e-05, 0.00222133, 0, 0
    37, 1.31033e-05, 0.00194218, 0, 0
    38, 1.10757e-05, 0.00178839, 0, 0
    39, 1.06809e-05, 0.00156468, 0, 0
    40, 9.03958e-06, 0.001441, 0, 0
    41, 8.71712e-06, 0.00126136, 0, 0
    42, 7.38693e-06, 0.00116178, 0, 0
    43, 7.12936e-06, 0.00101716, 0, 0
    44, 6.04413e-06, 0.000937097, 0, 0
    45, 5.83476e-06, 0.000821003, 0, 0
    46, 4.94884e-06, 0.000756394, 0, 0
    47, 4.77464e-06, 0.000662958, 0, 0
    48, 4.05262e-06, 0.000610765, 0, 0
    49, 3.90787e-06, 0.000535432, 0, 0
    50, 3.32313e-06, 0.000493315, 0, 0
    51, 3.19875e-06, 0.000432408, 0, 0
    52, 2.72567e-06, 0.000398679, 0, 0
    53, 2.62058e-06, 0.000349397, 0, 0
    54, 2.23646e-06, 0.000322237, 0, 0
    55, 2.14702e-06, 0.000282447, 0, 0
    56, 1.8349e-06, 0.00026048, 0, 0
    57, 1.75981e-06, 0.000228411, 0, 0
    58, 1.50528e-06, 0.000210627, 0, 0
    59, 1.4433e-06, 0.000184733, 0, 0
    60, 1.23604e-06, 0.000170374, 0, 0
    61, 1.18465e-06, 0.000149443, 0, 0
    62, 1.01586e-06, 0.000137847, 0, 0
    63, 9.72698e-07, 0.000120913, 0, 0
    64, 8.35224e-07, 0.000111536, 0, 0
    65, 7.99304e-07, 9.7837e-05, 0, 0
    66, 6.8727e-07, 9.02665e-05, 0, 0
    67, 6.57485e-07, 7.91984e-05, 0, 0
    68, 5.66103e-07, 7.30843e-05, 0, 0
    69, 5.41097e-07, 6.41273e-05, 0, 0
    70, 4.66624e-07, 5.91758e-05, 0, 0
    71, 4.45977e-07, 5.19289e-05, 0, 0
    72, 3.85239e-07, 4.79424e-05, 0, 0
    73, 3.67527e-07, 4.20523e-05, 0, 0
    74, 3.17782e-07, 3.88226e-05, 0, 0
    75, 3.03043e-07, 3.40708e-05, 0, 0
    76, 2.63299e-07, 3.14906e-05, 0, 0
    77, 2.50847e-07, 2.76361e-05, 0, 0
    78, 2.17699e-07, 2.55189e-05, 0, 0
    79, 2.07361e-07, 2.23898e-05, 0, 0
    80, 1.81033e-07, 2.06973e-05, 0, 0
    81, 1.72492e-07, 1.81724e-05, 0, 0
    82, 1.50448e-07, 1.67935e-05, 0, 0
    83, 1.42885e-07, 1.47136e-05, 0, 0
    84, 1.25521e-07, 1.36185e-05, 0, 0
    85, 1.193e-07, 1.19535e-05, 0, 0
    86, 1.04998e-07, 1.107e-05, 0, 0
    The solver residual has converged
    87, 9.9642e-08, 9.72192e-06, 0, 0

Max sigmaEq (von Mises stress) = 1.96734e+08
ExecutionTime = 1.45 s  ClockTime = 1 s

Time = 90

Evolving solid solver
Solving the total Lagrangian form of the momentum equation for D
    Corr, res, relRes, matRes, iters
    1, 0.000618382, 0.471773, 0, 0
    2, 0.000469039, 0.323513, 0, 0
    3, 0.000497381, 0.213328, 0, 0
    4, 0.000370815, 0.170845, 0, 0
    5, 0.000398485, 0.126547, 0, 0
    6, 0.000302847, 0.107337, 0, 0
    7, 0.000306553, 0.0843339, 0, 0
    8, 0.000240752, 0.0739139, 0, 0
    9, 0.000242205, 0.0603001, 0, 0
    10, 0.000199403, 0.0537701, 0, 0
    11, 0.000198361, 0.0449467, 0, 0
    12, 0.000164255, 0.0405012, 0, 0
    13, 0.000161439, 0.0342964, 0, 0
    14, 0.000134172, 0.0311392, 0, 0
    15, 0.000131519, 0.0265833, 0, 0
    16, 0.000109434, 0.0242555, 0, 0
    17, 0.000107423, 0.0208539, 0, 0
    18, 8.97495e-05, 0.019136, 0, 0
    19, 8.79791e-05, 0.0165374, 0, 0
    20, 7.41708e-05, 0.015257, 0, 0
    21, 7.26216e-05, 0.0132343, 0, 0
    22, 6.07601e-05, 0.0122329, 0, 0
    23, 5.95043e-05, 0.0106466, 0, 0
    24, 4.98806e-05, 0.0098546, 0, 0
    25, 4.88616e-05, 0.0085977, 0, 0
    26, 4.10025e-05, 0.0079672, 0, 0
    27, 4.02685e-05, 0.00696784, 0, 0
    28, 3.38436e-05, 0.00646448, 0, 0
    29, 3.32793e-05, 0.00566525, 0, 0
    30, 2.80136e-05, 0.0052599, 0, 0
    31, 2.75646e-05, 0.00461802, 0, 0
    32, 2.31673e-05, 0.00428893, 0, 0
    33, 2.28103e-05, 0.00377185, 0, 0
    34, 1.91658e-05, 0.00350445, 0, 0
    35, 1.88612e-05, 0.00308504, 0, 0
    36, 1.58549e-05, 0.00286768, 0, 0
    37, 1.56013e-05, 0.00252511, 0, 0
    38, 1.31589e-05, 0.00235005, 0, 0
    39, 1.29142e-05, 0.00206902, 0, 0
    40, 1.0928e-05, 0.00192734, 0, 0
    41, 1.07034e-05, 0.00169746, 0, 0
    42, 9.06284e-06, 0.0015815, 0, 0
    43, 8.86435e-06, 0.00139338, 0, 0
    44, 7.51111e-06, 0.00129861, 0, 0
    45, 7.33908e-06, 0.00114459, 0, 0
    46, 6.22388e-06, 0.00106669, 0, 0
    47, 6.08504e-06, 0.000940656, 0, 0
    48, 5.15772e-06, 0.000876496, 0, 0
    49, 5.0485e-06, 0.000773587, 0, 0
    50, 4.27738e-06, 0.000720658, 0, 0
    51, 4.18817e-06, 0.000636083, 0, 0
    52, 3.5502e-06, 0.000592711, 0, 0
    53, 3.47355e-06, 0.000523257, 0, 0
    54, 2.94609e-06, 0.000487621, 0, 0
    55, 2.88125e-06, 0.000430572, 0, 0
    56, 2.44527e-06, 0.000401239, 0, 0
    57, 2.39096e-06, 0.000354328, 0, 0
    58, 2.03246e-06, 0.000330263, 0, 0
    59, 1.9842e-06, 0.000291572, 0, 0
    60, 1.69014e-06, 0.000271913, 0, 0
    61, 1.64738e-06, 0.000240041, 0, 0
    62, 1.4044e-06, 0.000223873, 0, 0
    63, 1.36758e-06, 0.000197606, 0, 0
    64, 1.16706e-06, 0.000184381, 0, 0
    65, 1.13553e-06, 0.000162748, 0, 0
    66, 9.70394e-07, 0.000151829, 0, 0
    67, 9.43622e-07, 0.000134073, 0, 0
    68, 8.07023e-07, 0.000125053, 0, 0
    69, 7.8425e-07, 0.000110461, 0, 0
    70, 6.71086e-07, 0.000103015, 0, 0
    71, 6.51861e-07, 9.09957e-05, 0, 0
    72, 5.58317e-07, 8.48665e-05, 0, 0
    73, 5.42116e-07, 7.49767e-05, 0, 0
    74, 4.64712e-07, 6.98522e-05, 0, 0
    75, 4.49639e-07, 6.19053e-05, 0, 0
    76, 3.84417e-07, 5.75419e-05, 0, 0
    77, 3.72586e-07, 5.10235e-05, 0, 0
    78, 3.18534e-07, 4.74251e-05, 0, 0
    79, 3.08945e-07, 4.20628e-05, 0, 0
    80, 2.64336e-07, 3.91071e-05, 0, 0
    81, 2.56302e-07, 3.468e-05, 0, 0
    82, 2.1955e-07, 3.22521e-05, 0, 0
    83, 2.12798e-07, 2.85932e-05, 0, 0
    84, 1.82578e-07, 2.6603e-05, 0, 0
    85, 1.76914e-07, 2.3579e-05, 0, 0
    86, 1.52074e-07, 2.19453e-05, 0, 0
    87, 1.47595e-07, 1.94262e-05, 0, 0
    88, 1.27182e-07, 1.81351e-05, 0, 0
    89, 1.22899e-07, 1.60069e-05, 0, 0
    90, 1.06287e-07, 1.49437e-05, 0, 0
    91, 1.03009e-07, 1.32165e-05, 0, 0
    The solver residual has converged
    92, 8.92897e-08, 1.23378e-05, 0, 0

Max sigmaEq (von Mises stress) = 2.31849e+08
ExecutionTime = 1.64 s  ClockTime = 1 s

Time = 100

Evolving solid solver
Solving the total Lagrangian form of the momentum equation for D
    Corr, res, relRes, matRes, iters
    1, 0.000533727, 0.489395, 0, 0
    2, 0.000437046, 0.326905, 0, 0
    3, 0.000430542, 0.221351, 0, 0
    4, 0.000352566, 0.173228, 0, 0
    5, 0.000356232, 0.131297, 0, 0
    6, 0.000289615, 0.110301, 0, 0
    7, 0.000283549, 0.0883502, 0, 0
    8, 0.000232425, 0.0770188, 0, 0
    9, 0.000230482, 0.0636061, 0, 0
    10, 0.000194644, 0.0568506, 0, 0
    11, 0.000192983, 0.0478341, 0, 0
    12, 0.000160933, 0.0433405, 0, 0
    13, 0.000159327, 0.036914, 0, 0
    14, 0.000133043, 0.0337478, 0, 0
    15, 0.000132104, 0.0289661, 0, 0
    16, 0.000110626, 0.0266698, 0, 0
    17, 0.000110282, 0.0230439, 0, 0
    18, 9.26009e-05, 0.0213523, 0, 0
    19, 9.23554e-05, 0.0185375, 0, 0
    20, 7.7521e-05, 0.017256, 0, 0
    21, 7.71475e-05, 0.0150279, 0, 0
    22, 6.4676e-05, 0.0140378, 0, 0
    23, 6.43169e-05, 0.0122568, 0, 0
    24, 5.39332e-05, 0.0114815, 0, 0
    25, 5.37106e-05, 0.0100477, 0, 0
    26, 4.50871e-05, 0.00943285, 0, 0
    27, 4.49754e-05, 0.00827032, 0, 0
    28, 3.77775e-05, 0.00777728, 0, 0
    29, 3.77134e-05, 0.00682906, 0, 0
    30, 3.16815e-05, 0.00643099, 0, 0
    31, 3.16549e-05, 0.0056539, 0, 0
    32, 2.65689e-05, 0.00533097, 0, 0
    33, 2.65681e-05, 0.00469149, 0, 0
    34, 2.22789e-05, 0.00442805, 0, 0
    35, 2.23044e-05, 0.00389978, 0, 0
    36, 1.86879e-05, 0.00368395, 0, 0
    37, 1.87357e-05, 0.00324657, 0, 0
    38, 1.56918e-05, 0.0030688, 0, 0
    39, 1.57476e-05, 0.00270576, 0, 0
    40, 1.31982e-05, 0.0025593, 0, 0
    41, 1.32424e-05, 0.00225773, 0, 0
    42, 1.1103e-05, 0.00213648, 0, 0
    43, 1.11392e-05, 0.00188552, 0, 0
    44, 9.34272e-06, 0.00178435, 0, 0
    45, 9.39033e-06, 0.0015757, 0, 0
    46, 7.8612e-06, 0.00149145, 0, 0
    47, 7.91547e-06, 0.00131801, 0, 0
    48, 6.62361e-06, 0.00124755, 0, 0
    49, 6.66579e-06, 0.00110265, 0, 0
    50, 5.5792e-06, 0.00104398, 0, 0
    51, 5.61145e-06, 0.000922922, 0, 0
    52, 4.69715e-06, 0.000873882, 0, 0
    53, 4.72419e-06, 0.000772685, 0, 0
    54, 3.95606e-06, 0.00073175, 0, 0
    55, 3.9777e-06, 0.000647062, 0, 0
    56, 3.33245e-06, 0.00061291, 0, 0
    57, 3.34885e-06, 0.000541928, 0, 0
    58, 2.81192e-06, 0.000513571, 0, 0
    59, 2.8203e-06, 0.000453922, 0, 0
    60, 2.37384e-06, 0.000430473, 0, 0
    61, 2.37533e-06, 0.000380446, 0, 0
    62, 1.99957e-06, 0.000360693, 0, 0
    63, 2.00151e-06, 0.000318851, 0, 0
    64, 1.68451e-06, 0.000302318, 0, 0
    65, 1.68778e-06, 0.000267381, 0, 0
    66, 1.41982e-06, 0.000253431, 0, 0
    67, 1.42208e-06, 0.000224165, 0, 0
    68, 1.19626e-06, 0.000212493, 0, 0
    69, 1.19633e-06, 0.00018819, 0, 0
    70, 1.00209e-06, 0.000178015, 0, 0
    71, 1.00397e-06, 0.000157815, 0, 0
    72, 8.40278e-07, 0.000149232, 0, 0
    73, 8.42891e-07, 0.000132374, 0, 0
    74, 7.0522e-07, 0.000125127, 0, 0
    75, 7.07855e-07, 0.000111043, 0, 0
    76, 5.92171e-07, 0.000104928, 0, 0
    77, 5.94665e-07, 9.31404e-05, 0, 0
    78, 4.97598e-07, 8.79962e-05, 0, 0
    79, 4.99821e-07, 7.81272e-05, 0, 0
    80, 4.18418e-07, 7.38021e-05, 0, 0
    81, 4.20385e-07, 6.55392e-05, 0, 0
    82, 3.52067e-07, 6.1904e-05, 0, 0
    83, 3.5377e-07, 5.49738e-05, 0, 0
    84, 2.96653e-07, 5.19291e-05, 0, 0
    85, 2.97791e-07, 4.61125e-05, 0, 0
    86, 2.50198e-07, 4.35746e-05, 0, 0
    87, 2.50784e-07, 3.86881e-05, 0, 0
    88, 2.10894e-07, 3.65587e-05, 0, 0
    89, 2.11257e-07, 3.24607e-05, 0, 0
    90, 1.77798e-07, 3.06756e-05, 0, 0
    91, 1.78063e-07, 2.7238e-05, 0, 0
    92, 1.49987e-07, 2.5743e-05, 0, 0
    93, 1.50193e-07, 2.28567e-05, 0, 0
    94, 1.26617e-07, 2.16055e-05, 0, 0
    95, 1.26748e-07, 1.91802e-05, 0, 0
    96, 1.06959e-07, 1.81344e-05, 0, 0
    97, 1.07017e-07, 1.60862e-05, 0, 0
    The solver residual has converged
    98, 9.06155e-08, 1.52399e-05, 0, 0

Max sigmaEq (von Mises stress) = 2.71536e+08
ExecutionTime = 1.84 s  ClockTime = 2 s

The momentum equation converged in all time-steps


End

