/*---------------------------------------------------------------------------*\
| =========                 |                                                 |
| \\      /  F ield         | foam-extend: Open Source CFD                    |
|  \\    /   O peration     | Version:     4.1                                |
|   \\  /    A nd           | Web:         http://www.foam-extend.org         |
|    \\/     M anipulation  | For copyright notice see file Copyright         |
\*---------------------------------------------------------------------------*/
Build  : 4.1-70b064d0f326
Exec   : solids4Foam
Date   : Dec 12 2022
Time   : 20:16:34
Host   : "iloliveira"
PID    : 119218
CtrlDict : "/home/iloliveira/foam/solids4foam-fork-fe41/tutorials/solids/hyperelasticity/cylindricalPressureVesselBijelonja/system/controlDict"
Case   : /home/iloliveira/foam/solids4foam-fork-fe41/tutorials/solids/hyperelasticity/cylindricalPressureVesselBijelonja
nProcs : 1
sigFpe : Enabling floating point exception trapping (FOAM_SIGFPE).
allowSystemOperations : Disallowing user-supplied system call operations

// * * * * * * * * * * * * * * * * * * * * * * * * * * * * * * * * * * * * * //
Create time

/*---------------------------------------------------------------------------*\
|    For further information on the solids4Foam toolbox implementations,      |
|    please see the following publications:                                   |
|                                                                             |
|    P. Cardiff, A Karac, P. De Jaeger, H. Jasak, J. Nagy, A. Ivankovic,      |
|    Z. Tukovic: An open-source finite volume toolbox for solid mechanics and |
|    fluid-solid interaction simulations. arXiv:1808.10736v2, 2018, available |
|    at https://arxiv.org/abs/1808.10736.                                     |
|                                                                             |
|    Z. Tukovic, A. Karac, P. Cardiff, H. Jasak, A. Ivankovic: OpenFOAM       |
|    finite volume solver for fluid-solid interaction.  Transactions of       |
|    Famena, 42 (3), pp. 1-31, 2018, 10.21278/TOF.42301.                      |
\*---------------------------------------------------------------------------*/

Selecting physicsModel solidModel
Selecting solidModel nonLinearGeometryTotalLagrangianTotalDisplacement
Selecting dynamicFvMesh staticFvMesh
Creating solidTraction boundary condition
    pressure is time-varying
Creating solidTraction boundary condition
    under-relaxation method: fixed
Creating the mechanicalModel
Selecting mechanical law MooneyRivlinElastic
    Laplacian equation will be solved for pressure
    pressureSmoothingScaleFactor: 100
Material properties 
    max(c10) = 8e+07
    max(c01) = 2e+07
    max(c11) = 0
    max(mu) = 2e+08
    max(K) = 1e+09
Creating disp function object
    region = region0
    distance from specified point is 0
Time = 10

Evolving solid solver
Solving the total Lagrangian form of the momentum equation for D
setCellDisplacements: reading cellDisplacements
    Corr, res, relRes, matRes, iters
    1, 0.0235807, 0.340213, 0, 0
    2, 0.00619886, 0.239524, 0, 0
    3, 0.00647046, 0.112819, 0, 0
    4, 0.00228702, 0.0935344, 0, 0
    5, 0.00263467, 0.0484932, 0, 0
    6, 0.00106077, 0.0416056, 0, 0
    7, 0.00121508, 0.0227194, 0, 0
    8, 0.000535199, 0.0195126, 0, 0
    9, 0.000600412, 0.0110593, 0, 0
    10, 0.000278569, 0.00938321, 0, 0
    11, 0.000309823, 0.00545207, 0, 0
    12, 0.000163056, 0.00457782, 0, 0
    13, 0.000174296, 0.00271703, 0, 0
    14, 0.000102577, 0.00226148, 0, 0
    15, 0.000102832, 0.00136356, 0, 0
    16, 6.57158e-05, 0.00112498, 0, 0
    17, 6.24431e-05, 0.000688927, 0, 0
    18, 4.26023e-05, 0.00056267, 0, 0
    19, 3.90056e-05, 0.000350434, 0, 0
    20, 2.85559e-05, 0.000284255, 0, 0
    21, 2.56953e-05, 0.000180855, 0, 0
    22, 2.02644e-05, 0.000146692, 0, 0
    23, 1.80769e-05, 9.53236e-05, 0, 0
    24, 1.49788e-05, 7.79963e-05, 0, 0
    25, 1.3344e-05, 5.26171e-05, 0, 0
    26, 1.14788e-05, 4.31507e-05, 0, 0
    27, 1.02323e-05, 3.03745e-05, 0, 0
    28, 8.95772e-06, 2.5687e-05, 0, 0
    29, 8.00706e-06, 9.41912e-06, 0, 0
    30, 6.99337e-06, 2.17995e-05, 0, 0
    31, 6.31447e-06, 8.89838e-06, 0, 0
    32, 5.55699e-06, 1.59391e-05, 0, 0
    33, 5.00638e-06, 7.22278e-06, 0, 0
    34, 4.41211e-06, 1.20755e-05, 0, 0
    35, 3.97125e-06, 9.41654e-06, 0, 0
    36, 3.51028e-06, 9.49252e-06, 0, 0
    37, 3.17373e-06, 9.24529e-06, 0, 0
    38, 2.7856e-06, 7.97903e-06, 0, 0
    39, 2.54669e-06, 8.63368e-06, 0, 0
    40, 2.23117e-06, 6.98762e-06, 0, 0
    41, 2.05506e-06, 7.80953e-06, 0, 0
    42, 1.79485e-06, 6.15677e-06, 0, 0
    43, 1.66644e-06, 7.06473e-06, 0, 0
    44, 1.44946e-06, 5.47539e-06, 0, 0
    45, 1.35727e-06, 6.33669e-06, 0, 0
    46, 1.17175e-06, 4.93156e-06, 0, 0
    47, 1.10594e-06, 5.69884e-06, 0, 0
    48, 9.49879e-07, 4.44422e-06, 0, 0
    49, 9.10486e-07, 5.11582e-06, 0, 0
    50, 7.75863e-07, 4.02982e-06, 0, 0
    51, 7.52614e-07, 4.5617e-06, 0, 0
    52, 6.38826e-07, 3.66135e-06, 0, 0
    53, 6.30483e-07, 4.11596e-06, 0, 0
    54, 5.29367e-07, 3.33736e-06, 0, 0
    55, 5.29692e-07, 3.69841e-06, 0, 0
    56, 4.37098e-07, 2.99658e-06, 0, 0
    57, 4.45231e-07, 3.32185e-06, 0, 0
    58, 3.71912e-07, 2.72676e-06, 0, 0
    59, 3.77842e-07, 2.98443e-06, 0, 0
    60, 3.19491e-07, 2.48314e-06, 0, 0
    61, 3.21682e-07, 2.68361e-06, 0, 0
    62, 2.75776e-07, 2.26244e-06, 0, 0
    63, 2.76034e-07, 2.41458e-06, 0, 0
    64, 2.36568e-07, 1.76476e-06, 0, 0
    65, 2.32851e-07, 1.74171e-06, 0, 0
    66, 1.99477e-07, 1.3522e-06, 0, 0
    67, 1.96924e-07, 1.38055e-06, 0, 0
    68, 1.74847e-07, 1.13575e-06, 0, 0
    69, 1.69973e-07, 1.16744e-06, 0, 0
    70, 1.54694e-07, 1.01856e-06, 0, 0
    71, 1.47779e-07, 1.01756e-06, 0, 0
    Both residuals have converged
    72, 1.36663e-07, 9.31931e-07, 0, 0

Max sigmaEq (von Mises stress) = 1.981e+07
ExecutionTime = 0.16 s  ClockTime = 0 s

Time = 20

Evolving solid solver
Solving the total Lagrangian form of the momentum equation for D
    Corr, res, relRes, matRes, iters
    1, 0.00684053, 0.354596, 0, 0
    2, 0.00235505, 0.245457, 0, 0
    3, 0.00278964, 0.123103, 0, 0
    4, 0.00115879, 0.0990282, 0, 0
    5, 0.00130082, 0.0552442, 0, 0
    6, 0.000597791, 0.0457239, 0, 0
    7, 0.000647206, 0.0271202, 0, 0
    8, 0.00031439, 0.0223599, 0, 0
    9, 0.000333047, 0.0137907, 0, 0
    10, 0.000182614, 0.011253, 0, 0
    11, 0.000186184, 0.00713848, 0, 0
    12, 0.00011102, 0.00577456, 0, 0
    13, 0.000107501, 0.00375163, 0, 0
    14, 6.94058e-05, 0.00300142, 0, 0
    15, 6.39417e-05, 0.00198487, 0, 0
    16, 4.35337e-05, 0.00157143, 0, 0
    17, 3.8914e-05, 0.00105456, 0, 0
    18, 2.80992e-05, 0.000820183, 0, 0
    19, 2.46945e-05, 0.000564661, 0, 0
    20, 1.8878e-05, 0.000433126, 0, 0
    21, 1.64584e-05, 0.000302983, 0, 0
    22, 1.32386e-05, 0.000231131, 0, 0
    23, 1.16276e-05, 0.000164126, 0, 0
    24, 9.68835e-06, 0.000125495, 0, 0
    25, 8.47777e-06, 9.05772e-05, 0, 0
    26, 7.17758e-06, 6.96734e-05, 0, 0
    27, 6.24261e-06, 5.11952e-05, 0, 0
    28, 5.38296e-06, 3.96753e-05, 0, 0
    29, 4.73583e-06, 3.00831e-05, 0, 0
    30, 4.17973e-06, 2.42734e-05, 0, 0
    31, 3.7891e-06, 8.99677e-06, 0, 0
    32, 3.30978e-06, 2.14205e-05, 0, 0
    33, 3.01807e-06, 7.97575e-06, 0, 0
    34, 2.64888e-06, 1.57173e-05, 0, 0
    35, 2.39495e-06, 6.22376e-06, 0, 0
    36, 2.10151e-06, 1.16673e-05, 0, 0
    37, 1.89631e-06, 5.05456e-06, 0, 0
    38, 1.66992e-06, 8.95902e-06, 0, 0
    39, 1.5102e-06, 7.06475e-06, 0, 0
    40, 1.33178e-06, 7.08025e-06, 0, 0
    41, 1.21726e-06, 6.96555e-06, 0, 0
    42, 1.0636e-06, 6.11444e-06, 0, 0
    43, 9.82212e-07, 6.41923e-06, 0, 0
    44, 8.53094e-07, 5.31261e-06, 0, 0
    45, 7.95243e-07, 5.81282e-06, 0, 0
    46, 6.89106e-07, 4.70376e-06, 0, 0
    47, 6.46135e-07, 5.22126e-06, 0, 0
    48, 5.56699e-07, 4.18523e-06, 0, 0
    49, 5.27784e-07, 4.66564e-06, 0, 0
    50, 4.51607e-07, 3.75282e-06, 0, 0
    51, 4.32588e-07, 4.17887e-06, 0, 0
    52, 3.67719e-07, 3.37162e-06, 0, 0
    53, 3.5614e-07, 3.74677e-06, 0, 0
    54, 3.00616e-07, 3.02781e-06, 0, 0
    55, 2.94975e-07, 3.36131e-06, 0, 0
    56, 2.47006e-07, 2.72686e-06, 0, 0
    57, 2.45099e-07, 2.98307e-06, 0, 0
    58, 2.04582e-07, 2.45926e-06, 0, 0
    59, 2.057e-07, 2.67353e-06, 0, 0
    60, 1.68337e-07, 2.18718e-06, 0, 0
    61, 1.72452e-07, 2.39296e-06, 0, 0
    62, 1.42384e-07, 1.97625e-06, 0, 0
    63, 1.45743e-07, 2.14102e-06, 0, 0
    64, 1.22025e-07, 1.78596e-06, 0, 0
    65, 1.23586e-07, 1.91549e-06, 0, 0
    66, 1.04897e-07, 1.61457e-06, 0, 0
    67, 1.05384e-07, 1.71573e-06, 0, 0
    The solver residual has converged
    68, 9.06661e-08, 1.46045e-06, 0, 0

Max sigmaEq (von Mises stress) = 4.04951e+07
ExecutionTime = 0.29 s  ClockTime = 0 s

Time = 30

Evolving solid solver
Solving the total Lagrangian form of the momentum equation for D
    Corr, res, relRes, matRes, iters
    1, 0.00390679, 0.369168, 0, 0
    2, 0.00156856, 0.251605, 0, 0
    3, 0.00180491, 0.133196, 0, 0
    4, 0.000844828, 0.1047, 0, 0
    5, 0.000901412, 0.0620031, 0, 0
    6, 0.000461025, 0.0501005, 0, 0
    7, 0.000472537, 0.0315683, 0, 0
    8, 0.000251795, 0.0254213, 0, 0
    9, 0.000252587, 0.0167136, 0, 0
    10, 0.000154537, 0.0133608, 0, 0
    11, 0.000147271, 0.00906052, 0, 0
    12, 9.65415e-05, 0.00718781, 0, 0
    13, 8.74809e-05, 0.00497945, 0, 0
    14, 6.00956e-05, 0.00391506, 0, 0
    15, 5.22535e-05, 0.00276132, 0, 0
    16, 3.75525e-05, 0.00214337, 0, 0
    17, 3.22941e-05, 0.00153163, 0, 0
    18, 2.44983e-05, 0.00117295, 0, 0
    19, 2.08616e-05, 0.000852382, 0, 0
    20, 1.6401e-05, 0.000649192, 0, 0
    21, 1.40429e-05, 0.00047454, 0, 0
    22, 1.14176e-05, 0.000361759, 0, 0
    23, 9.92693e-06, 0.000265016, 0, 0
    24, 8.15961e-06, 0.000203295, 0, 0
    25, 7.0674e-06, 0.000149152, 0, 0
    26, 5.87957e-06, 0.000115306, 0, 0
    27, 5.09424e-06, 8.51336e-05, 0, 0
    28, 4.31746e-06, 6.65875e-05, 0, 0
    29, 3.79224e-06, 4.9556e-05, 0, 0
    30, 3.29326e-06, 3.89518e-05, 0, 0
    31, 2.92645e-06, 2.92771e-05, 0, 0
    32, 2.57446e-06, 2.36397e-05, 0, 0
    33, 2.27183e-06, 1.91363e-05, 0, 0
    34, 2.08976e-06, 6.90596e-06, 0, 0
    35, 1.79422e-06, 1.68648e-05, 0, 0
    36, 1.65663e-06, 6.19754e-06, 0, 0
    37, 1.42644e-06, 1.1964e-05, 0, 0
    38, 1.29669e-06, 4.93178e-06, 0, 0
    39, 1.13906e-06, 8.95788e-06, 0, 0
    40, 1.03037e-06, 4.01902e-06, 0, 0
    41, 9.08239e-07, 6.96357e-06, 0, 0
    42, 8.23501e-07, 5.67975e-06, 0, 0
    43, 7.27452e-07, 5.51123e-06, 0, 0
    44, 6.65494e-07, 5.40919e-06, 0, 0
    45, 5.80798e-07, 4.75423e-06, 0, 0
    46, 5.35082e-07, 4.91166e-06, 0, 0
    47, 4.66592e-07, 4.11439e-06, 0, 0
    48, 4.35814e-07, 4.39815e-06, 0, 0
    49, 3.77593e-07, 3.59411e-06, 0, 0
    50, 3.55135e-07, 3.91328e-06, 0, 0
    51, 3.06092e-07, 3.16432e-06, 0, 0
    52, 2.90188e-07, 3.48124e-06, 0, 0
    53, 2.4862e-07, 2.80309e-06, 0, 0
    54, 2.37876e-07, 3.09992e-06, 0, 0
    55, 2.02091e-07, 2.49552e-06, 0, 0
    56, 1.95313e-07, 2.76335e-06, 0, 0
    57, 1.65133e-07, 2.22632e-06, 0, 0
    58, 1.61516e-07, 2.46417e-06, 0, 0
    59, 1.35392e-07, 1.99241e-06, 0, 0
    60, 1.33868e-07, 2.17502e-06, 0, 0
    61, 1.11736e-07, 1.78797e-06, 0, 0
    62, 1.11855e-07, 1.93887e-06, 0, 0
    The solver residual has converged
    63, 9.26583e-08, 1.60595e-06, 0, 0

Max sigmaEq (von Mises stress) = 6.22237e+07
ExecutionTime = 0.41 s  ClockTime = 0 s

Time = 40

Evolving solid solver
Solving the total Lagrangian form of the momentum equation for D
    Corr, res, relRes, matRes, iters
    1, 0.00268763, 0.384091, 0, 0
    2, 0.00123248, 0.258157, 0, 0
    3, 0.0013505, 0.143208, 0, 0
    4, 0.000698584, 0.110652, 0, 0
    5, 0.000713692, 0.0687018, 0, 0
    6, 0.000399148, 0.0546068, 0, 0
    7, 0.000387741, 0.036106, 0, 0
    8, 0.000230232, 0.0287542, 0, 0
    9, 0.000215496, 0.019873, 0, 0
    10, 0.000142426, 0.0157363, 0, 0
    11, 0.000127997, 0.0112077, 0, 0
    12, 9.0347e-05, 0.0088414, 0, 0
    13, 7.84594e-05, 0.00642318, 0, 0
    14, 5.66021e-05, 0.00503978, 0, 0
    15, 4.80437e-05, 0.00368832, 0, 0
    16, 3.54794e-05, 0.00289022, 0, 0
    17, 3.04058e-05, 0.0021233, 0, 0
    18, 2.31658e-05, 0.00165651, 0, 0
    19, 1.98458e-05, 0.00122973, 0, 0
    20, 1.55074e-05, 0.000956772, 0, 0
    21, 1.34941e-05, 0.000712683, 0, 0
    22, 1.08305e-05, 0.000555399, 0, 0
    23, 9.46897e-06, 0.000412559, 0, 0
    24, 7.66613e-06, 0.000324679, 0, 0
    25, 6.65101e-06, 0.000241086, 0, 0
    26, 5.42573e-06, 0.000189516, 0, 0
    27, 4.72436e-06, 0.000141247, 0, 0
    28, 3.95285e-06, 0.000111829, 0, 0
    29, 3.4707e-06, 8.3479e-05, 0, 0
    30, 2.96465e-06, 6.6795e-05, 0, 0
    31, 2.63448e-06, 5.01072e-05, 0, 0
    32, 2.29028e-06, 4.02257e-05, 0, 0
    33, 2.04446e-06, 3.03053e-05, 0, 0
    34, 1.78779e-06, 2.45459e-05, 0, 0
    35, 1.59549e-06, 1.86911e-05, 0, 0
    36, 1.37736e-06, 1.57598e-05, 0, 0
    37, 1.28637e-06, 6.03733e-06, 0, 0
    38, 1.0796e-06, 1.3923e-05, 0, 0
    39, 1.01431e-06, 4.96565e-06, 0, 0
    40, 8.57872e-07, 9.90595e-06, 0, 0
    41, 7.83746e-07, 3.87058e-06, 0, 0
    42, 6.88455e-07, 7.45567e-06, 0, 0
    43, 6.24208e-07, 3.12352e-06, 0, 0
    44, 5.50189e-07, 5.7471e-06, 0, 0
    45, 5.0011e-07, 2.6036e-06, 0, 0
    46, 4.41705e-07, 4.50124e-06, 0, 0
    47, 4.0213e-07, 3.73959e-06, 0, 0
    48, 3.54473e-07, 3.6438e-06, 0, 0
    49, 3.26355e-07, 3.51694e-06, 0, 0
    50, 2.83574e-07, 3.15077e-06, 0, 0
    51, 2.63816e-07, 3.16132e-06, 0, 0
    52, 2.28434e-07, 2.72777e-06, 0, 0
    53, 2.15197e-07, 2.82631e-06, 0, 0
    54, 1.85411e-07, 2.36777e-06, 0, 0
    55, 1.75666e-07, 2.50409e-06, 0, 0
    56, 1.50515e-07, 2.07326e-06, 0, 0
    57, 1.4371e-07, 2.21854e-06, 0, 0
    58, 1.2236e-07, 1.82498e-06, 0, 0
    59, 1.17911e-07, 1.96652e-06, 0, 0
    The solver residual has converged
    60, 9.95397e-08, 1.61546e-06, 0, 0

Max sigmaEq (von Mises stress) = 8.52002e+07
ExecutionTime = 0.53 s  ClockTime = 0 s

Time = 50

Evolving solid solver
Solving the total Lagrangian form of the momentum equation for D
    Corr, res, relRes, matRes, iters
    1, 0.00201812, 0.3994, 0, 0
    2, 0.00104762, 0.265256, 0, 0
    3, 0.00109023, 0.153236, 0, 0
    4, 0.000613872, 0.116651, 0, 0
    5, 0.000606788, 0.0753332, 0, 0
    6, 0.000364587, 0.0592381, 0, 0
    7, 0.000341402, 0.0407689, 0, 0
    8, 0.000216969, 0.032321, 0, 0
    9, 0.000196089, 0.023178, 0, 0
    10, 0.00013662, 0.0184321, 0, 0
    11, 0.000121473, 0.0135376, 0, 0
    12, 8.83133e-05, 0.0108276, 0, 0
    13, 7.65695e-05, 0.00804098, 0, 0
    14, 5.55264e-05, 0.00643433, 0, 0
    15, 4.77305e-05, 0.00479999, 0, 0
    16, 3.50625e-05, 0.00383877, 0, 0
    17, 3.04141e-05, 0.00287541, 0, 0
    18, 2.29402e-05, 0.00229451, 0, 0
    19, 1.99559e-05, 0.00173471, 0, 0
    20, 1.54364e-05, 0.00137792, 0, 0
    21, 1.35678e-05, 0.00104806, 0, 0
    22, 1.0719e-05, 0.000831432, 0, 0
    23, 9.38233e-06, 0.000633829, 0, 0
    24, 7.48512e-06, 0.000502433, 0, 0
    25, 6.51475e-06, 0.000383185, 0, 0
    26, 5.24273e-06, 0.000304656, 0, 0
    27, 4.57762e-06, 0.000232165, 0, 0
    28, 3.77053e-06, 0.000186007, 0, 0
    29, 3.30766e-06, 0.00014137, 0, 0
    30, 2.78354e-06, 0.000113864, 0, 0
    31, 2.46721e-06, 8.66824e-05, 0, 0
    32, 2.10051e-06, 6.98413e-05, 0, 0
    33, 1.8661e-06, 5.35418e-05, 0, 0
    34, 1.60736e-06, 4.32125e-05, 0, 0
    35, 1.42866e-06, 3.30286e-05, 0, 0
    36, 1.23944e-06, 2.68504e-05, 0, 0
    37, 1.10296e-06, 2.07199e-05, 0, 0
    38, 9.63044e-07, 1.70887e-05, 0, 0
    39, 8.59986e-07, 1.33312e-05, 0, 0
    40, 7.54281e-07, 1.11339e-05, 0, 0
    41, 6.7554e-07, 8.70081e-06, 0, 0
    42, 5.90744e-07, 7.57426e-06, 0, 0
    43, 5.46635e-07, 5.52217e-06, 0, 0
    44, 4.70538e-07, 5.33321e-06, 0, 0
    45, 4.2783e-07, 3.88315e-06, 0, 0
    46, 3.80199e-07, 3.63754e-06, 0, 0
    47, 3.41412e-07, 2.92118e-06, 0, 0
    48, 3.05056e-07, 2.63373e-06, 0, 0
    49, 2.73705e-07, 2.2118e-06, 0, 0
    50, 2.44868e-07, 1.97833e-06, 0, 0
    51, 2.19659e-07, 1.71442e-06, 0, 0
    52, 1.96839e-07, 1.69888e-06, 0, 0
    53, 1.75897e-07, 1.46084e-06, 0, 0
    54, 1.60619e-07, 1.78259e-06, 0, 0
    55, 1.4152e-07, 1.70551e-06, 0, 0
    56, 1.31139e-07, 1.86105e-06, 0, 0
    57, 1.13795e-07, 1.517e-06, 0, 0
    58, 1.0646e-07, 1.65357e-06, 0, 0
    The solver residual has converged
    59, 9.19561e-08, 1.3371e-06, 0, 0

Max sigmaEq (von Mises stress) = 1.09678e+08
ExecutionTime = 0.66 s  ClockTime = 1 s

Time = 60

Evolving solid solver
Solving the total Lagrangian form of the momentum equation for D
    Corr, res, relRes, matRes, iters
    1, 0.00159985, 0.415589, 0, 0
    2, 0.000925119, 0.272306, 0, 0
    3, 0.000918869, 0.163144, 0, 0
    4, 0.000561166, 0.122421, 0, 0
    5, 0.000538561, 0.0821512, 0, 0
    6, 0.000352296, 0.0639644, 0, 0
    7, 0.000313624, 0.0455996, 0, 0
    8, 0.000214164, 0.0361831, 0, 0
    9, 0.00019082, 0.0266759, 0, 0
    10, 0.000137965, 0.0214752, 0, 0
    11, 0.000123883, 0.0161414, 0, 0
    12, 9.18648e-05, 0.0130789, 0, 0
    13, 8.06292e-05, 0.00995518, 0, 0
    14, 6.03847e-05, 0.00805638, 0, 0
    15, 5.23578e-05, 0.00617938, 0, 0
    16, 3.96856e-05, 0.00499287, 0, 0
    17, 3.46528e-05, 0.00384635, 0, 0
    18, 2.68131e-05, 0.0031111, 0, 0
    19, 2.34082e-05, 0.00240736, 0, 0
    20, 1.85295e-05, 0.00194633, 0, 0
    21, 1.60529e-05, 0.00151143, 0, 0
    22, 1.28162e-05, 0.00121924, 0, 0
    23, 1.10204e-05, 0.000950397, 0, 0
    24, 8.89372e-06, 0.000763189, 0, 0
    25, 7.58912e-06, 0.000599222, 0, 0
    26, 6.18666e-06, 0.000480205, 0, 0
    27, 5.31891e-06, 0.000377074, 0, 0
    28, 4.37653e-06, 0.000303804, 0, 0
    29, 3.78848e-06, 0.000239054, 0, 0
    30, 3.17552e-06, 0.000191728, 0, 0
    31, 2.76631e-06, 0.00015123, 0, 0
    32, 2.33889e-06, 0.000121845, 0, 0
    33, 2.0442e-06, 9.57545e-05, 0, 0
    34, 1.74481e-06, 7.76721e-05, 0, 0
    35, 1.52687e-06, 6.10784e-05, 0, 0
    36, 1.31259e-06, 4.95101e-05, 0, 0
    37, 1.15245e-06, 3.91373e-05, 0, 0
    38, 9.98379e-07, 3.18261e-05, 0, 0
    39, 8.81054e-07, 2.52455e-05, 0, 0
    40, 7.68398e-07, 2.05022e-05, 0, 0
    41, 6.80126e-07, 1.63363e-05, 0, 0
    42, 5.95981e-07, 1.33906e-05, 0, 0
    43, 5.29043e-07, 1.07579e-05, 0, 0
    44, 4.65451e-07, 8.90012e-06, 0, 0
    45, 4.14337e-07, 7.17799e-06, 0, 0
    46, 3.65627e-07, 6.0223e-06, 0, 0
    47, 3.26378e-07, 4.88757e-06, 0, 0
    48, 2.86101e-07, 4.26065e-06, 0, 0
    49, 2.63246e-07, 3.21213e-06, 0, 0
    50, 2.26882e-07, 3.09419e-06, 0, 0
    51, 2.05504e-07, 2.31593e-06, 0, 0
    52, 1.82047e-07, 2.17593e-06, 0, 0
    53, 1.6347e-07, 1.771e-06, 0, 0
    54, 1.45849e-07, 1.60021e-06, 0, 0
    55, 1.30854e-07, 1.35353e-06, 0, 0
    56, 1.16989e-07, 1.2153e-06, 0, 0
    57, 1.04937e-07, 1.05781e-06, 0, 0
    Both residuals have converged
    58, 9.39655e-08, 9.52659e-07, 0, 0

Max sigmaEq (von Mises stress) = 1.35979e+08
ExecutionTime = 0.78 s  ClockTime = 1 s

Time = 70

Evolving solid solver
Solving the total Lagrangian form of the momentum equation for D
    Corr, res, relRes, matRes, iters
    1, 0.00131394, 0.432803, 0, 0
    2, 0.000843509, 0.280195, 0, 0
    3, 0.000795058, 0.172684, 0, 0
    4, 0.000524188, 0.12827, 0, 0
    5, 0.000490465, 0.0883531, 0, 0
    6, 0.000336206, 0.0690691, 0, 0
    7, 0.000298806, 0.0502603, 0, 0
    8, 0.000211762, 0.0404278, 0, 0
    9, 0.000190651, 0.03041, 0, 0
    10, 0.000140156, 0.0248352, 0, 0
    11, 0.000126199, 0.0190791, 0, 0
    12, 9.47796e-05, 0.0156439, 0, 0
    13, 8.39727e-05, 0.0121862, 0, 0
    14, 6.34087e-05, 0.00997725, 0, 0
    15, 5.56427e-05, 0.00783018, 0, 0
    16, 4.2762e-05, 0.00640667, 0, 0
    17, 3.74869e-05, 0.00505937, 0, 0
    18, 2.95776e-05, 0.0041429, 0, 0
    19, 2.5762e-05, 0.00328592, 0, 0
    20, 2.05536e-05, 0.00269142, 0, 0
    21, 1.78039e-05, 0.00214425, 0, 0
    22, 1.42967e-05, 0.00175321, 0, 0
    23, 1.23297e-05, 0.00140004, 0, 0
    24, 9.99578e-06, 0.00114356, 0, 0
    25, 8.61509e-06, 0.00091478, 0, 0
    26, 7.07755e-06, 0.000744868, 0, 0
    27, 6.05854e-06, 0.000599835, 0, 0
    28, 5.01932e-06, 0.000487308, 0, 0
    29, 4.31617e-06, 0.000392381, 0, 0
    30, 3.58771e-06, 0.000319947, 0, 0
    31, 3.09098e-06, 0.000258042, 0, 0
    32, 2.60357e-06, 0.000209123, 0, 0
    33, 2.25731e-06, 0.000169487, 0, 0
    34, 1.90788e-06, 0.000137764, 0, 0
    35, 1.65338e-06, 0.000111281, 0, 0
    36, 1.41116e-06, 9.07212e-05, 0, 0
    37, 1.22748e-06, 7.33563e-05, 0, 0
    38, 1.05691e-06, 5.9877e-05, 0, 0
    39, 9.22845e-07, 4.85549e-05, 0, 0
    40, 8.00178e-07, 3.96399e-05, 0, 0
    41, 7.01357e-07, 3.21334e-05, 0, 0
    42, 6.11356e-07, 2.633e-05, 0, 0
    43, 5.38386e-07, 2.13241e-05, 0, 0
    44, 4.71983e-07, 1.74866e-05, 0, 0
    45, 4.16975e-07, 1.41746e-05, 0, 0
    46, 3.67003e-07, 1.16783e-05, 0, 0
    47, 3.25033e-07, 9.53301e-06, 0, 0
    48, 2.86468e-07, 7.87167e-06, 0, 0
    49, 2.54456e-07, 6.45121e-06, 0, 0
    50, 2.25032e-07, 5.35056e-06, 0, 0
    51, 2.00189e-07, 4.4134e-06, 0, 0
    52, 1.77469e-07, 3.69109e-06, 0, 0
    53, 1.58217e-07, 3.03751e-06, 0, 0
    54, 1.40002e-07, 2.58559e-06, 0, 0
    55, 1.24785e-07, 2.15934e-06, 0, 0
    56, 1.09735e-07, 1.89927e-06, 0, 0
    57, 1.01028e-07, 1.47096e-06, 0, 0
    The solver residual has converged
    58, 8.72765e-08, 1.41246e-06, 0, 0

Max sigmaEq (von Mises stress) = 1.6452e+08
ExecutionTime = 0.9 s  ClockTime = 1 s

Time = 80

Evolving solid solver
Solving the total Lagrangian form of the momentum equation for D
    Corr, res, relRes, matRes, iters
    1, 0.00110635, 0.451389, 0, 0
    2, 0.000780081, 0.288033, 0, 0
    3, 0.000702432, 0.18209, 0, 0
    4, 0.000499568, 0.1344, 0, 0
    5, 0.000456543, 0.094541, 0, 0
    6, 0.000325605, 0.0744101, 0, 0
    7, 0.000289808, 0.0553547, 0, 0
    8, 0.00021127, 0.0449593, 0, 0
    9, 0.000190932, 0.0345296, 0, 0
    10, 0.000145363, 0.0284899, 0, 0
    11, 0.000130576, 0.0223562, 0, 0
    12, 0.00010074, 0.0185331, 0, 0
    13, 8.92192e-05, 0.0147464, 0, 0
    14, 6.86398e-05, 0.0122171, 0, 0
    15, 6.06705e-05, 0.0098025, 0, 0
    16, 4.72434e-05, 0.00812702, 0, 0
    17, 4.16666e-05, 0.0065628, 0, 0
    18, 3.31609e-05, 0.00545268, 0, 0
    19, 2.9066e-05, 0.00442213, 0, 0
    20, 2.33869e-05, 0.00367706, 0, 0
    21, 2.03079e-05, 0.00299125, 0, 0
    22, 1.64811e-05, 0.00248715, 0, 0
    23, 1.42542e-05, 0.00202831, 0, 0
    24, 1.16126e-05, 0.00168332, 0, 0
    25, 1.00483e-05, 0.00137634, 0, 0
    26, 8.26172e-06, 0.00114101, 0, 0
    27, 7.14623e-06, 0.000934913, 0, 0
    28, 5.94446e-06, 0.000774774, 0, 0
    29, 5.1452e-06, 0.000635458, 0, 0
    30, 4.29443e-06, 0.000524998, 0, 0
    31, 3.68683e-06, 0.000433371, 0, 0
    32, 3.09571e-06, 0.00035739, 0, 0
    33, 2.65861e-06, 0.000294602, 0, 0
    34, 2.23072e-06, 0.000243815, 0, 0
    35, 1.91436e-06, 0.0002008, 0, 0
    36, 1.61806e-06, 0.000166297, 0, 0
    37, 1.39329e-06, 0.000137023, 0, 0
    38, 1.18415e-06, 0.000113444, 0, 0
    39, 1.02321e-06, 9.35829e-05, 0, 0
    40, 8.78173e-07, 7.75264e-05, 0, 0
    41, 7.61695e-07, 6.39516e-05, 0, 0
    42, 6.573e-07, 5.30033e-05, 0, 0
    43, 5.71761e-07, 4.38326e-05, 0, 0
    44, 4.9622e-07, 3.63402e-05, 0, 0
    45, 4.32843e-07, 2.99591e-05, 0, 0
    46, 3.76786e-07, 2.48721e-05, 0, 0
    47, 3.29929e-07, 2.06285e-05, 0, 0
    48, 2.88678e-07, 1.71241e-05, 0, 0
    49, 2.53979e-07, 1.41314e-05, 0, 0
    50, 2.23048e-07, 1.17357e-05, 0, 0
    51, 1.96772e-07, 9.72936e-06, 0, 0
    52, 1.73417e-07, 8.10687e-06, 0, 0
    53, 1.5345e-07, 6.74102e-06, 0, 0
    54, 1.3569e-07, 5.62593e-06, 0, 0
    55, 1.20366e-07, 4.67504e-06, 0, 0
    56, 1.06268e-07, 3.90459e-06, 0, 0
    The solver residual has converged
    57, 9.4121e-08, 3.26925e-06, 0, 0

Max sigmaEq (von Mises stress) = 1.95858e+08
ExecutionTime = 1.02 s  ClockTime = 1 s

Time = 90

Evolving solid solver
Solving the total Lagrangian form of the momentum equation for D
    Corr, res, relRes, matRes, iters
    1, 0.000948574, 0.471544, 0, 0
    2, 0.000731236, 0.296349, 0, 0
    3, 0.00063171, 0.190992, 0, 0
    4, 0.000476865, 0.139947, 0, 0
    5, 0.000429841, 0.101308, 0, 0
    6, 0.000323153, 0.079529, 0, 0
    7, 0.000284117, 0.0610082, 0, 0
    8, 0.000218884, 0.049553, 0, 0
    9, 0.000195474, 0.0391777, 0, 0
    10, 0.000156724, 0.0324267, 0, 0
    11, 0.00013849, 0.0260762, 0, 0
    12, 0.000111182, 0.0217643, 0, 0
    13, 9.73028e-05, 0.0177158, 0, 0
    14, 7.80205e-05, 0.0148254, 0, 0
    15, 6.81766e-05, 0.0121729, 0, 0
    16, 5.53992e-05, 0.0102144, 0, 0
    17, 4.8339e-05, 0.00844038, 0, 0
    18, 3.96681e-05, 0.00709717, 0, 0
    19, 3.44999e-05, 0.00589182, 0, 0
    20, 2.85062e-05, 0.00495792, 0, 0
    21, 2.46777e-05, 0.00412823, 0, 0
    22, 2.05072e-05, 0.0034738, 0, 0
    23, 1.76657e-05, 0.00290055, 0, 0
    24, 1.46888e-05, 0.00244008, 0, 0
    25, 1.27421e-05, 0.0020432, 0, 0
    26, 1.06344e-05, 0.00171741, 0, 0
    27, 9.21822e-06, 0.00144006, 0, 0
    28, 7.7408e-06, 0.0012112, 0, 0
    29, 6.708e-06, 0.00101615, 0, 0
    30, 5.66302e-06, 0.000854944, 0, 0
    31, 4.89377e-06, 0.000717299, 0, 0
    32, 4.14545e-06, 0.000603459, 0, 0
    33, 3.55951e-06, 0.00050761, 0, 0
    34, 3.0137e-06, 0.00042593, 0, 0
    35, 2.59337e-06, 0.000359099, 0, 0
    36, 2.20188e-06, 0.000300975, 0, 0
    37, 1.89886e-06, 0.000253801, 0, 0
    38, 1.60961e-06, 0.000213206, 0, 0
    39, 1.38584e-06, 0.000179473, 0, 0
    40, 1.18028e-06, 0.000150848, 0, 0
    41, 1.01763e-06, 0.000126965, 0, 0
    42, 8.75044e-07, 0.000106815, 0, 0
    43, 7.53556e-07, 8.98422e-05, 0, 0
    44, 6.4796e-07, 7.56117e-05, 0, 0
    45, 5.62179e-07, 6.36672e-05, 0, 0
    46, 4.84898e-07, 5.36252e-05, 0, 0
    47, 4.21938e-07, 4.51621e-05, 0, 0
    48, 3.66961e-07, 3.80869e-05, 0, 0
    49, 3.1913e-07, 3.19793e-05, 0, 0
    50, 2.78502e-07, 2.70174e-05, 0, 0
    51, 2.4353e-07, 2.27216e-05, 0, 0
    52, 2.12981e-07, 1.91531e-05, 0, 0
    53, 1.868e-07, 1.61161e-05, 0, 0
    54, 1.63794e-07, 1.35883e-05, 0, 0
    55, 1.43969e-07, 1.14414e-05, 0, 0
    56, 1.26485e-07, 9.64801e-06, 0, 0
    57, 1.11336e-07, 8.12989e-06, 0, 0
    The solver residual has converged
    58, 9.79851e-08, 6.86129e-06, 0, 0

Max sigmaEq (von Mises stress) = 2.30755e+08
ExecutionTime = 1.15 s  ClockTime = 1 s

Time = 100

Evolving solid solver
Solving the total Lagrangian form of the momentum equation for D
    Corr, res, relRes, matRes, iters
    1, 0.000828494, 0.494105, 0, 0
    2, 0.000694672, 0.303337, 0, 0
    3, 0.000561525, 0.200519, 0, 0
    4, 0.000468093, 0.144942, 0, 0
    5, 0.000402931, 0.108726, 0, 0
    6, 0.000326921, 0.0847586, 0, 0
    7, 0.000275198, 0.0671486, 0, 0
    8, 0.000230118, 0.0543994, 0, 0
    9, 0.000199014, 0.0443171, 0, 0
    10, 0.000168652, 0.0366279, 0, 0
    11, 0.000145168, 0.0303209, 0, 0
    12, 0.000122596, 0.0253441, 0, 0
    13, 0.00010525, 0.0211842, 0, 0
    14, 8.92968e-05, 0.0178426, 0, 0
    15, 7.69503e-05, 0.0150298, 0, 0
    16, 6.56781e-05, 0.0127305, 0, 0
    17, 5.67078e-05, 0.0107773, 0, 0
    18, 4.85041e-05, 0.0091609, 0, 0
    19, 4.18266e-05, 0.00777873, 0, 0
    20, 3.5773e-05, 0.00662635, 0, 0
    21, 3.0805e-05, 0.00563916, 0, 0
    22, 2.63721e-05, 0.00481194, 0, 0
    23, 2.27374e-05, 0.00410291, 0, 0
    24, 1.95022e-05, 0.00350582, 0, 0
    25, 1.6831e-05, 0.00299374, 0, 0
    26, 1.44666e-05, 0.00256044, 0, 0
    27, 1.2497e-05, 0.00218861, 0, 0
    28, 1.07602e-05, 0.00187311, 0, 0
    29, 9.30259e-06, 0.00160229, 0, 0
    30, 8.0206e-06, 0.00137203, 0, 0
    31, 6.93617e-06, 0.00117423, 0, 0
    32, 5.98537e-06, 0.0010059, 0, 0
    33, 5.17778e-06, 0.000861149, 0, 0
    34, 4.47313e-06, 0.000738211, 0, 0
    35, 3.86312e-06, 0.00063242, 0, 0
    36, 3.32234e-06, 0.000541392, 0, 0
    37, 2.8769e-06, 0.000463872, 0, 0
    38, 2.49355e-06, 0.000397709, 0, 0
    39, 2.16086e-06, 0.000340581, 0, 0
    40, 1.87165e-06, 0.000292602, 0, 0
    41, 1.62854e-06, 0.000250127, 0, 0
    42, 1.40866e-06, 0.000215084, 0, 0
    43, 1.22861e-06, 0.000183677, 0, 0
    44, 1.06179e-06, 0.000158048, 0, 0
    45, 9.27511e-07, 0.00013493, 0, 0
    46, 8.01344e-07, 0.000116096, 0, 0
    47, 7.01347e-07, 9.91952e-05, 0, 0
    48, 6.07293e-07, 8.524e-05, 0, 0
    49, 5.30888e-07, 7.29334e-05, 0, 0
    50, 4.60867e-07, 6.26527e-05, 0, 0
    51, 4.02712e-07, 5.36599e-05, 0, 0
    52, 3.50235e-07, 4.60731e-05, 0, 0
    53, 3.05957e-07, 3.94621e-05, 0, 0
    54, 2.66002e-07, 3.39833e-05, 0, 0
    55, 2.3326e-07, 2.89408e-05, 0, 0
    56, 2.02177e-07, 2.49584e-05, 0, 0
    57, 1.777e-07, 2.13073e-05, 0, 0
    58, 1.54238e-07, 1.83935e-05, 0, 0
    59, 1.35744e-07, 1.5692e-05, 0, 0
    60, 1.17988e-07, 1.34985e-05, 0, 0
    61, 1.03692e-07, 1.15505e-05, 0, 0
    The solver residual has converged
    62, 9.0452e-08, 9.93259e-06, 0, 0

Max sigmaEq (von Mises stress) = 2.70306e+08
ExecutionTime = 1.28 s  ClockTime = 1 s

The momentum equation converged in all time-steps


End

