/*---------------------------------------------------------------------------*\
| =========                 |                                                 |
| \\      /  F ield         | foam-extend: Open Source CFD                    |
|  \\    /   O peration     | Version:     4.1                                |
|   \\  /    A nd           | Web:         http://www.foam-extend.org         |
|    \\/     M anipulation  | For copyright notice see file Copyright         |
\*---------------------------------------------------------------------------*/
Build  : 4.1-70b064d0f326
Exec   : solids4Foam
Date   : Dec 12 2022
Time   : 20:14:38
Host   : "iloliveira"
PID    : 118789
CtrlDict : "/home/iloliveira/foam/solids4foam-fork-fe41/tutorials/solids/hyperelasticity/cylindricalPressureVesselBijelonja/system/controlDict"
Case   : /home/iloliveira/foam/solids4foam-fork-fe41/tutorials/solids/hyperelasticity/cylindricalPressureVesselBijelonja
nProcs : 1
sigFpe : Enabling floating point exception trapping (FOAM_SIGFPE).
allowSystemOperations : Disallowing user-supplied system call operations

// * * * * * * * * * * * * * * * * * * * * * * * * * * * * * * * * * * * * * //
Create time

/*---------------------------------------------------------------------------*\
|    For further information on the solids4Foam toolbox implementations,      |
|    please see the following publications:                                   |
|                                                                             |
|    P. Cardiff, A Karac, P. De Jaeger, H. Jasak, J. Nagy, A. Ivankovic,      |
|    Z. Tukovic: An open-source finite volume toolbox for solid mechanics and |
|    fluid-solid interaction simulations. arXiv:1808.10736v2, 2018, available |
|    at https://arxiv.org/abs/1808.10736.                                     |
|                                                                             |
|    Z. Tukovic, A. Karac, P. Cardiff, H. Jasak, A. Ivankovic: OpenFOAM       |
|    finite volume solver for fluid-solid interaction.  Transactions of       |
|    Famena, 42 (3), pp. 1-31, 2018, 10.21278/TOF.42301.                      |
\*---------------------------------------------------------------------------*/

Selecting physicsModel solidModel
Selecting solidModel nonLinearGeometryTotalLagrangianTotalDisplacement
Selecting dynamicFvMesh staticFvMesh
Creating solidTraction boundary condition
    pressure is time-varying
Creating solidTraction boundary condition
    under-relaxation method: fixed
Creating the mechanicalModel
Selecting mechanical law MooneyRivlinElastic
    Laplacian equation will be solved for pressure
    pressureSmoothingScaleFactor: 100
Material properties 
    max(c10) = 8e+07
    max(c01) = 2e+07
    max(c11) = 0
    max(mu) = 2e+08
    max(K) = 1e+10
Creating disp function object
    region = region0
    distance from specified point is 0
Time = 10

Evolving solid solver
Solving the total Lagrangian form of the momentum equation for D
setCellDisplacements: reading cellDisplacements
    Corr, res, relRes, matRes, iters
    1, 0.032612, 0.417286, 0, 0
    2, 0.0108955, 0.350259, 0, 0
    3, 0.0130219, 0.200981, 0, 0
    4, 0.00537274, 0.205606, 0, 0
    5, 0.00787961, 0.129145, 0, 0
    6, 0.0034887, 0.141875, 0, 0
    7, 0.00551516, 0.0933229, 0, 0
    8, 0.00254858, 0.106206, 0, 0
    9, 0.00415568, 0.0718751, 0, 0
    10, 0.00196844, 0.0834404, 0, 0
    11, 0.00327461, 0.05765, 0, 0
    12, 0.00157618, 0.0677225, 0, 0
    13, 0.00266569, 0.047576, 0, 0
    14, 0.00130568, 0.0562554, 0, 0
    15, 0.0022182, 0.04005, 0, 0
    16, 0.0011073, 0.04753, 0, 0
    17, 0.0018764, 0.0342531, 0, 0
    18, 0.000956313, 0.0407119, 0, 0
    19, 0.00160536, 0.0296149, 0, 0
    20, 0.000833998, 0.0352186, 0, 0
    21, 0.00139002, 0.0258788, 0, 0
    22, 0.000736174, 0.0307525, 0, 0
    23, 0.00121144, 0.0227725, 0, 0
    24, 0.000652882, 0.0270252, 0, 0
    25, 0.0010642, 0.0201893, 0, 0
    26, 0.000583027, 0.0239092, 0, 0
    27, 0.000940498, 0.017994, 0, 0
    28, 0.000522477, 0.0212526, 0, 0
    29, 0.000835212, 0.0161091, 0, 0
    30, 0.000470072, 0.0189735, 0, 0
    31, 0.000744866, 0.0144798, 0, 0
    32, 0.000424864, 0.0170032, 0, 0
    33, 0.000666614, 0.0130602, 0, 0
    34, 0.000385532, 0.0152875, 0, 0
    35, 0.000598424, 0.0118158, 0, 0
    36, 0.000350948, 0.0137847, 0, 0
    37, 0.000538761, 0.0107186, 0, 0
    38, 0.000320258, 0.0124613, 0, 0
    39, 0.000486331, 0.00974618, 0, 0
    40, 0.000292812, 0.0112904, 0, 0
    41, 0.000440045, 0.0088803, 0, 0
    42, 0.000268153, 0.0102501, 0, 0
    43, 0.00039899, 0.00810626, 0, 0
    44, 0.000245954, 0.00932246, 0, 0
    45, 0.000362435, 0.00741188, 0, 0
    46, 0.000225947, 0.00849262, 0, 0
    47, 0.000329759, 0.00678703, 0, 0
    48, 0.000207865, 0.00774801, 0, 0
    49, 0.000300458, 0.00622309, 0, 0
    50, 0.00019148, 0.00707808, 0, 0
    51, 0.000274113, 0.00571283, 0, 0
    52, 0.000176588, 0.00647382, 0, 0
    53, 0.000250401, 0.00524999, 0, 0
    54, 0.000163016, 0.0059276, 0, 0
    55, 0.000229018, 0.00482937, 0, 0
    56, 0.000150618, 0.0054328, 0, 0
    57, 0.000209716, 0.00444626, 0, 0
    58, 0.000139271, 0.00498382, 0, 0
    59, 0.000192224, 0.00409684, 0, 0
    60, 0.000128869, 0.00457569, 0, 0
    61, 0.000176357, 0.0037774, 0, 0
    62, 0.000119322, 0.00420421, 0, 0
    63, 0.000161911, 0.00348973, 0, 0
    64, 0.000110534, 0.0038647, 0, 0
    65, 0.000148406, 0.00322161, 0, 0
    66, 0.000102493, 0.003556, 0, 0
    67, 0.000136464, 0.00297626, 0, 0
    68, 9.51373e-05, 0.00327413, 0, 0
    69, 0.000125594, 0.00275066, 0, 0
    70, 8.83445e-05, 0.00301585, 0, 0
    71, 0.000115662, 0.00254335, 0, 0
    72, 8.20517e-05, 0.00277955, 0, 0
    73, 0.000106573, 0.00235258, 0, 0
    74, 7.62258e-05, 0.00256295, 0, 0
    75, 9.82501e-05, 0.00217682, 0, 0
    76, 7.08329e-05, 0.00236419, 0, 0
    77, 9.06172e-05, 0.0020149, 0, 0
    78, 6.58338e-05, 0.00218172, 0, 0
    79, 8.36092e-05, 0.00186568, 0, 0
    80, 6.12001e-05, 0.00201409, 0, 0
    81, 7.71686e-05, 0.00172804, 0, 0
    82, 5.69032e-05, 0.00185997, 0, 0
    83, 7.1253e-05, 0.00160097, 0, 0
    84, 5.29236e-05, 0.00171821, 0, 0
    85, 6.58223e-05, 0.00148357, 0, 0
    86, 4.9237e-05, 0.00158772, 0, 0
    87, 6.08339e-05, 0.00137508, 0, 0
    88, 4.58223e-05, 0.00146752, 0, 0
    89, 5.62493e-05, 0.00127478, 0, 0
    90, 4.26572e-05, 0.00135698, 0, 0
    91, 5.20325e-05, 0.00118203, 0, 0
    92, 3.97232e-05, 0.00125524, 0, 0
    93, 4.81894e-05, 0.00109623, 0, 0
    94, 3.69984e-05, 0.00116139, 0, 0
    95, 4.46526e-05, 0.00101682, 0, 0
    96, 3.44679e-05, 0.0010748, 0, 0
    97, 4.1386e-05, 0.000943303, 0, 0
    98, 3.21184e-05, 0.000994855, 0, 0
    99, 3.83681e-05, 0.000875214, 0, 0
    100, 2.99375e-05, 0.000921036, 0, 0
    101, 3.55789e-05, 0.000812138, 0, 0
    102, 2.79109e-05, 0.000852845, 0, 0
    103, 3.30008e-05, 0.000753696, 0, 0
    104, 2.6027e-05, 0.00078983, 0, 0
    105, 3.06186e-05, 0.000699538, 0, 0
    106, 2.42746e-05, 0.000731582, 0, 0
    107, 2.84177e-05, 0.000649341, 0, 0
    108, 2.26441e-05, 0.000677731, 0, 0
    109, 2.63839e-05, 0.000602803, 0, 0
    110, 2.11264e-05, 0.000627931, 0, 0
    111, 2.45036e-05, 0.000559651, 0, 0
    112, 1.97141e-05, 0.000581871, 0, 0
    113, 2.27638e-05, 0.000519631, 0, 0
    114, 1.83998e-05, 0.000539257, 0, 0
    115, 2.1154e-05, 0.000482511, 0, 0
    116, 1.71893e-05, 0.000499827, 0, 0
    117, 1.9664e-05, 0.000448076, 0, 0
    118, 1.60615e-05, 0.000463334, 0, 0
    119, 1.82839e-05, 0.000416127, 0, 0
    120, 1.50103e-05, 0.000429554, 0, 0
    121, 1.70058e-05, 0.000386481, 0, 0
    122, 1.40309e-05, 0.00039828, 0, 0
    123, 1.58216e-05, 0.00035897, 0, 0
    124, 1.31182e-05, 0.000369322, 0, 0
    125, 1.47244e-05, 0.000333437, 0, 0
    126, 1.22676e-05, 0.000342504, 0, 0
    127, 1.3708e-05, 0.000309739, 0, 0
    128, 1.1474e-05, 0.000317666, 0, 0
    129, 1.27658e-05, 0.000287741, 0, 0
    130, 1.07341e-05, 0.000294657, 0, 0
    131, 1.18921e-05, 0.00026732, 0, 0
    132, 1.00438e-05, 0.00027334, 0, 0
    133, 1.10814e-05, 0.000248362, 0, 0
    134, 9.39956e-06, 0.000253589, 0, 0
    135, 1.0329e-05, 0.000230761, 0, 0
    136, 8.79847e-06, 0.000235287, 0, 0
    137, 9.63071e-06, 0.000214418, 0, 0
    138, 8.23755e-06, 0.000218326, 0, 0
    139, 8.98261e-06, 0.000199244, 0, 0
    140, 7.71421e-06, 0.000202605, 0, 0
    141, 8.3809e-06, 0.000185153, 0, 0
    142, 7.22596e-06, 0.000188033, 0, 0
    143, 7.8222e-06, 0.000172067, 0, 0
    144, 6.77058e-06, 0.000174525, 0, 0
    145, 7.30345e-06, 0.000159916, 0, 0
    146, 6.34585e-06, 0.000162001, 0, 0
    147, 6.82166e-06, 0.00014863, 0, 0
    148, 5.94952e-06, 0.00015039, 0, 0
    149, 6.37421e-06, 0.000138149, 0, 0
    150, 5.5795e-06, 0.000139624, 0, 0
    151, 5.95843e-06, 0.000128415, 0, 0
    152, 5.23408e-06, 0.00012964, 0, 0
    153, 5.57186e-06, 0.000119373, 0, 0
    154, 4.91147e-06, 0.000120381, 0, 0
    155, 5.21542e-06, 0.00011089, 0, 0
    156, 4.61262e-06, 0.000111759, 0, 0
    157, 4.88579e-06, 0.000103104, 0, 0
    158, 4.3356e-06, 0.000103814, 0, 0
    159, 4.57726e-06, 9.58756e-05, 0, 0
    160, 4.07403e-06, 9.64361e-05, 0, 0
    161, 4.28774e-06, 8.91473e-05, 0, 0
    162, 3.82836e-06, 8.95861e-05, 0, 0
    163, 4.01819e-06, 8.28962e-05, 0, 0
    164, 3.60038e-06, 8.31645e-05, 0, 0
    165, 3.76955e-06, 7.70655e-05, 0, 0
    166, 3.38864e-06, 7.72828e-05, 0, 0
    167, 3.53851e-06, 7.16932e-05, 0, 0
    168, 3.18932e-06, 7.18287e-05, 0, 0
    169, 3.32093e-06, 6.66907e-05, 0, 0
    170, 3.00133e-06, 6.6756e-05, 0, 0
    171, 3.11767e-06, 6.20359e-05, 0, 0
    172, 2.82536e-06, 6.20471e-05, 0, 0
    173, 2.92952e-06, 5.76581e-05, 0, 0
    174, 2.66172e-06, 5.76842e-05, 0, 0
    175, 2.75431e-06, 5.36354e-05, 0, 0
    176, 2.5083e-06, 5.36545e-05, 0, 0
    177, 2.58973e-06, 4.99049e-05, 0, 0
    178, 2.36414e-06, 4.98541e-05, 0, 0
    179, 2.43692e-06, 4.64358e-05, 0, 0
    180, 2.22955e-06, 4.63592e-05, 0, 0
    181, 2.2936e-06, 4.32303e-05, 0, 0
    182, 2.10255e-06, 4.3123e-05, 0, 0
    183, 2.15842e-06, 4.02439e-05, 0, 0
    184, 1.98282e-06, 4.01134e-05, 0, 0
    185, 2.03219e-06, 3.74643e-05, 0, 0
    186, 1.87089e-06, 3.73199e-05, 0, 0
    187, 1.91447e-06, 3.4882e-05, 0, 0
    188, 1.76627e-06, 3.47284e-05, 0, 0
    189, 1.80463e-06, 3.24827e-05, 0, 0
    190, 1.66855e-06, 3.23231e-05, 0, 0
    191, 1.69847e-06, 3.01905e-05, 0, 0
    192, 1.57336e-06, 3.00395e-05, 0, 0
    193, 1.59814e-06, 2.80709e-05, 0, 0
    194, 1.48586e-06, 2.79617e-05, 0, 0
    195, 1.51053e-06, 2.61884e-05, 0, 0
    196, 1.40616e-06, 2.60294e-05, 0, 0
    197, 1.42783e-06, 2.44065e-05, 0, 0
    198, 1.33131e-06, 2.42237e-05, 0, 0
    199, 1.35036e-06, 2.27409e-05, 0, 0
    200, 1.26133e-06, 2.25545e-05, 0, 0
    201, 1.27722e-06, 2.11984e-05, 0, 0
    202, 1.1951e-06, 2.10118e-05, 0, 0
    203, 1.20845e-06, 1.97652e-05, 0, 0
    204, 1.13312e-06, 1.95785e-05, 0, 0
    205, 1.14453e-06, 1.84324e-05, 0, 0
    206, 1.07543e-06, 1.82461e-05, 0, 0
    207, 1.08479e-06, 1.71912e-05, 0, 0
    208, 1.02107e-06, 1.70081e-05, 0, 0
    209, 1.0284e-06, 1.60375e-05, 0, 0
    210, 9.69545e-07, 1.58585e-05, 0, 0
    211, 9.7517e-07, 1.49664e-05, 0, 0
    212, 9.20769e-07, 1.47909e-05, 0, 0
    213, 9.25058e-07, 1.397e-05, 0, 0
    214, 8.7499e-07, 1.37983e-05, 0, 0
    215, 8.78355e-07, 1.30439e-05, 0, 0
    216, 8.32263e-07, 1.28763e-05, 0, 0
    217, 8.34826e-07, 1.21813e-05, 0, 0
    218, 7.924e-07, 1.20184e-05, 0, 0
    219, 7.94254e-07, 1.13795e-05, 0, 0
    220, 7.5511e-07, 1.12232e-05, 0, 0
    221, 7.56053e-07, 1.06317e-05, 0, 0
    222, 7.19926e-07, 1.04829e-05, 0, 0
    223, 7.20129e-07, 9.93808e-06, 0, 0
    224, 6.86633e-07, 9.79538e-06, 0, 0
    225, 6.86172e-07, 9.29324e-06, 0, 0
    226, 6.55089e-07, 9.15536e-06, 0, 0
    227, 6.53903e-07, 8.69269e-06, 0, 0
    228, 6.25138e-07, 8.56547e-06, 0, 0
    229, 6.23205e-07, 8.13391e-06, 0, 0
    230, 5.96379e-07, 8.00864e-06, 0, 0
    231, 5.9435e-07, 7.60954e-06, 0, 0
    232, 5.69641e-07, 7.49274e-06, 0, 0
    233, 5.67816e-07, 7.12641e-06, 0, 0
    234, 5.44804e-07, 7.01628e-06, 0, 0
    235, 5.42848e-07, 6.6779e-06, 0, 0
    236, 5.21572e-07, 6.57284e-06, 0, 0
    237, 5.19302e-07, 6.25819e-06, 0, 0
    238, 4.99501e-07, 6.15855e-06, 0, 0
    239, 4.97084e-07, 5.86827e-06, 0, 0
    240, 4.78567e-07, 5.77149e-06, 0, 0
    241, 4.76124e-07, 5.50456e-06, 0, 0
    242, 4.59087e-07, 5.41272e-06, 0, 0
    243, 4.56371e-07, 5.16596e-06, 0, 0
    244, 4.40521e-07, 5.07915e-06, 0, 0
    245, 4.37653e-07, 4.85101e-06, 0, 0
    246, 4.22901e-07, 4.7688e-06, 0, 0
    247, 4.19904e-07, 4.55808e-06, 0, 0
    248, 4.06094e-07, 4.47926e-06, 0, 0
    249, 4.03087e-07, 4.28492e-06, 0, 0
    250, 3.90414e-07, 4.21021e-06, 0, 0
    251, 3.87219e-07, 4.03011e-06, 0, 0
    252, 3.75535e-07, 3.95961e-06, 0, 0
    253, 3.72248e-07, 3.79256e-06, 0, 0
    254, 3.61433e-07, 3.72604e-06, 0, 0
    255, 3.58032e-07, 3.57115e-06, 0, 0
    256, 3.48083e-07, 3.50832e-06, 0, 0
    257, 3.43923e-07, 3.36202e-06, 0, 0
    258, 3.34122e-07, 3.30317e-06, 0, 0
    259, 3.30721e-07, 3.17225e-06, 0, 0
    260, 3.21885e-07, 3.11557e-06, 0, 0
    261, 3.17886e-07, 2.99157e-06, 0, 0
    262, 3.10408e-07, 2.93867e-06, 0, 0
    263, 3.06104e-07, 2.8241e-06, 0, 0
    264, 3.0099e-07, 2.77469e-06, 0, 0
    265, 2.95999e-07, 2.66774e-06, 0, 0
    266, 2.92016e-07, 2.62129e-06, 0, 0
    267, 2.87361e-07, 2.51533e-06, 0, 0
    268, 2.83512e-07, 2.47272e-06, 0, 0
    269, 2.7856e-07, 2.37905e-06, 0, 0
    270, 2.74745e-07, 2.34219e-06, 0, 0
    271, 2.70481e-07, 2.2461e-06, 0, 0
    272, 2.65768e-07, 2.25593e-06, 0, 0
    273, 2.67197e-07, 2.071e-06, 0, 0
    274, 2.62682e-07, 2.19773e-06, 0, 0
    275, 2.61511e-07, 1.89713e-06, 0, 0
    276, 2.57129e-07, 2.14579e-06, 0, 0
    277, 2.53058e-07, 1.7614e-06, 0, 0
    278, 2.49363e-07, 2.0691e-06, 0, 0
    279, 2.44704e-07, 1.65863e-06, 0, 0
    280, 2.4091e-07, 1.97418e-06, 0, 0
    281, 2.3623e-07, 1.58116e-06, 0, 0
    282, 2.34474e-07, 1.86793e-06, 0, 0
    283, 2.26173e-07, 1.52466e-06, 0, 0
    284, 2.27272e-07, 1.72669e-06, 0, 0
    285, 2.22036e-07, 1.48862e-06, 0, 0
    286, 2.21447e-07, 1.60867e-06, 0, 0
    287, 2.16467e-07, 1.44591e-06, 0, 0
    288, 2.14276e-07, 1.51441e-06, 0, 0
    289, 2.10038e-07, 1.39953e-06, 0, 0
    290, 2.08258e-07, 1.43153e-06, 0, 0
    291, 2.04834e-07, 1.34622e-06, 0, 0
    292, 2.03394e-07, 1.35624e-06, 0, 0
    293, 2.00396e-07, 1.29128e-06, 0, 0
    294, 1.98751e-07, 1.28803e-06, 0, 0
    295, 1.9595e-07, 1.23905e-06, 0, 0
    296, 1.93918e-07, 1.22758e-06, 0, 0
    297, 1.91222e-07, 1.18867e-06, 0, 0
    298, 1.89037e-07, 1.17251e-06, 0, 0
    299, 1.86513e-07, 1.14069e-06, 0, 0
    300, 1.84288e-07, 1.12152e-06, 0, 0
    301, 1.81931e-07, 1.09426e-06, 0, 0
    302, 1.79172e-07, 1.07729e-06, 0, 0
    303, 1.76936e-07, 1.05373e-06, 0, 0
    304, 1.74467e-07, 1.03527e-06, 0, 0
    305, 1.72425e-07, 1.01419e-06, 0, 0
    Both residuals have converged
    306, 1.7049e-07, 9.9363e-07, 0, 0

Max sigmaEq (von Mises stress) = 1.98058e+07
ExecutionTime = 0.61 s  ClockTime = 0 s

Time = 20

Evolving solid solver
Solving the total Lagrangian form of the momentum equation for D
    Corr, res, relRes, matRes, iters
    1, 0.0016415, 0.421654, 0, 0
    2, 0.000754699, 0.349737, 0, 0
    3, 0.00141976, 0.204121, 0, 0
    4, 0.000688798, 0.205445, 0, 0
    5, 0.00123853, 0.131667, 0, 0
    6, 0.000616269, 0.141989, 0, 0
    7, 0.00109234, 0.0955133, 0, 0
    8, 0.000551495, 0.106454, 0, 0
    9, 0.000968398, 0.0738551, 0, 0
    10, 0.000495026, 0.0837966, 0, 0
    11, 0.000861074, 0.0594559, 0, 0
    12, 0.000447371, 0.0681434, 0, 0
    13, 0.000768921, 0.0492144, 0, 0
    14, 0.000407822, 0.056711, 0, 0
    15, 0.000689336, 0.0415684, 0, 0
    16, 0.000373253, 0.0480191, 0, 0
    17, 0.00061923, 0.0356496, 0, 0
    18, 0.000341401, 0.0412077, 0, 0
    19, 0.000557539, 0.0309451, 0, 0
    20, 0.000312952, 0.0357448, 0, 0
    21, 0.000503679, 0.0271238, 0, 0
    22, 0.000288009, 0.0312788, 0, 0
    23, 0.000456509, 0.0239635, 0, 0
    24, 0.000265811, 0.02757, 0, 0
    25, 0.000414903, 0.0213102, 0, 0
    26, 0.000245609, 0.0244478, 0, 0
    27, 0.000377777, 0.0190553, 0, 0
    28, 0.000227045, 0.0217904, 0, 0
    29, 0.000344317, 0.0171182, 0, 0
    30, 0.000209955, 0.0195077, 0, 0
    31, 0.000314083, 0.0154395, 0, 0
    32, 0.000194361, 0.017532, 0, 0
    33, 0.000286842, 0.0139743, 0, 0
    34, 0.000180188, 0.01581, 0, 0
    35, 0.000262364, 0.0126872, 0, 0
    36, 0.000167291, 0.0142998, 0, 0
    37, 0.000240378, 0.01155, 0, 0
    38, 0.000155456, 0.0129679, 0, 0
    39, 0.000220579, 0.0105398, 0, 0
    40, 0.000144545, 0.0117875, 0, 0
    41, 0.000202658, 0.00963807, 0, 0
    42, 0.000134455, 0.0107367, 0, 0
    43, 0.000186363, 0.00882986, 0, 0
    44, 0.00012512, 0.00979796, 0, 0
    45, 0.000171484, 0.0081028, 0, 0
    46, 0.000116475, 0.00895637, 0, 0
    47, 0.000157877, 0.00744659, 0, 0
    48, 0.000108477, 0.0081996, 0, 0
    49, 0.000145437, 0.00685267, 0, 0
    50, 0.000101067, 0.00751712, 0, 0
    51, 0.000134087, 0.00631363, 0, 0
    52, 9.42025e-05, 0.00690014, 0, 0
    53, 0.000123725, 0.00582322, 0, 0
    54, 8.78365e-05, 0.00634101, 0, 0
    55, 0.00011426, 0.00538246, 0, 0
    56, 8.19216e-05, 0.00583285, 0, 0
    57, 0.000105508, 0.00497356, 0, 0
    58, 7.64585e-05, 0.00537193, 0, 0
    59, 9.75451e-05, 0.00460035, 0, 0
    60, 7.13951e-05, 0.00495139, 0, 0
    61, 9.02526e-05, 0.00425792, 0, 0
    62, 6.66743e-05, 0.00456764, 0, 0
    63, 8.35407e-05, 0.00394364, 0, 0
    64, 6.22662e-05, 0.0042168, 0, 0
    65, 7.73576e-05, 0.00365468, 0, 0
    66, 5.81522e-05, 0.00389547, 0, 0
    67, 7.16593e-05, 0.00338861, 0, 0
    68, 5.43188e-05, 0.00360085, 0, 0
    69, 6.64071e-05, 0.00314352, 0, 0
    70, 5.07396e-05, 0.00333045, 0, 0
    71, 6.15587e-05, 0.00291763, 0, 0
    72, 4.7399e-05, 0.00308205, 0, 0
    73, 5.70819e-05, 0.00270918, 0, 0
    74, 4.42786e-05, 0.00285364, 0, 0
    75, 5.29469e-05, 0.00251662, 0, 0
    76, 4.13699e-05, 0.00264339, 0, 0
    77, 4.91285e-05, 0.00233855, 0, 0
    78, 3.8657e-05, 0.00244968, 0, 0
    79, 4.56017e-05, 0.00217378, 0, 0
    80, 3.61295e-05, 0.00227106, 0, 0
    81, 4.23573e-05, 0.00202123, 0, 0
    82, 3.37713e-05, 0.00210626, 0, 0
    83, 3.93736e-05, 0.00187993, 0, 0
    84, 3.15716e-05, 0.00195415, 0, 0
    85, 3.66132e-05, 0.00174897, 0, 0
    86, 2.95171e-05, 0.00181391, 0, 0
    87, 3.40586e-05, 0.00162752, 0, 0
    88, 2.7599e-05, 0.00168426, 0, 0
    89, 3.16908e-05, 0.00151483, 0, 0
    90, 2.58073e-05, 0.0015643, 0, 0
    91, 2.9494e-05, 0.00141023, 0, 0
    92, 2.41351e-05, 0.00145328, 0, 0
    93, 2.7455e-05, 0.0013131, 0, 0
    94, 2.25733e-05, 0.00135046, 0, 0
    95, 2.55619e-05, 0.00122287, 0, 0
    96, 2.11154e-05, 0.00125521, 0, 0
    97, 2.38045e-05, 0.00113902, 0, 0
    98, 1.97534e-05, 0.00116693, 0, 0
    99, 2.21733e-05, 0.00106109, 0, 0
    100, 1.84996e-05, 0.00108508, 0, 0
    101, 2.06595e-05, 0.000988616, 0, 0
    102, 1.73268e-05, 0.00100916, 0, 0
    103, 1.92537e-05, 0.000921214, 0, 0
    104, 1.62296e-05, 0.000938726, 0, 0
    105, 1.79481e-05, 0.00085851, 0, 0
    106, 1.52029e-05, 0.000873355, 0, 0
    107, 1.67346e-05, 0.000800162, 0, 0
    108, 1.42422e-05, 0.000812669, 0, 0
    109, 1.56064e-05, 0.000745856, 0, 0
    110, 1.33432e-05, 0.000756313, 0, 0
    111, 1.45573e-05, 0.000695302, 0, 0
    112, 1.25016e-05, 0.000703966, 0, 0
    113, 1.35816e-05, 0.000648232, 0, 0
    114, 1.1714e-05, 0.000655331, 0, 0
    115, 1.2674e-05, 0.000604398, 0, 0
    116, 1.09769e-05, 0.000610134, 0, 0
    117, 1.183e-05, 0.000563572, 0, 0
    118, 1.02874e-05, 0.000568123, 0, 0
    119, 1.10448e-05, 0.000525542, 0, 0
    120, 9.64202e-06, 0.000529067, 0, 0
    121, 1.03141e-05, 0.000490112, 0, 0
    122, 9.03821e-06, 0.00049275, 0, 0
    123, 9.63412e-06, 0.0004571, 0, 0
    124, 8.473e-06, 0.000458975, 0, 0
    125, 9.0011e-06, 0.000426338, 0, 0
    126, 7.94403e-06, 0.000427558, 0, 0
    127, 8.41144e-06, 0.00039767, 0, 0
    128, 7.44895e-06, 0.00039833, 0, 0
    129, 7.86205e-06, 0.000370949, 0, 0
    130, 6.9856e-06, 0.000371135, 0, 0
    131, 7.3503e-06, 0.000346042, 0, 0
    132, 6.55183e-06, 0.000345827, 0, 0
    133, 6.87339e-06, 0.000322824, 0, 0
    134, 6.14576e-06, 0.000322273, 0, 0
    135, 6.42884e-06, 0.000301179, 0, 0
    136, 5.76554e-06, 0.000300348, 0, 0
    137, 6.01446e-06, 0.000280998, 0, 0
    138, 5.40957e-06, 0.000279938, 0, 0
    139, 5.62816e-06, 0.000262181, 0, 0
    140, 5.07643e-06, 0.000260935, 0, 0
    141, 5.26791e-06, 0.000244635, 0, 0
    142, 4.76455e-06, 0.000243241, 0, 0
    143, 4.93198e-06, 0.000228274, 0, 0
    144, 4.47258e-06, 0.000226763, 0, 0
    145, 4.61864e-06, 0.000213016, 0, 0
    146, 4.19924e-06, 0.000211418, 0, 0
    147, 4.3262e-06, 0.000198786, 0, 0
    148, 3.94331e-06, 0.000197126, 0, 0
    149, 4.05331e-06, 0.000185515, 0, 0
    150, 3.70367e-06, 0.000183813, 0, 0
    151, 3.79875e-06, 0.000173137, 0, 0
    152, 3.47919e-06, 0.000171411, 0, 0
    153, 3.56107e-06, 0.000161592, 0, 0
    154, 3.26891e-06, 0.000159857, 0, 0
    155, 3.33915e-06, 0.000150824, 0, 0
    156, 3.07195e-06, 0.000149093, 0, 0
    157, 3.13197e-06, 0.000140779, 0, 0
    158, 2.88749e-06, 0.000139064, 0, 0
    159, 2.93844e-06, 0.000131409, 0, 0
    160, 2.71467e-06, 0.000129718, 0, 0
    161, 2.75758e-06, 0.000122669, 0, 0
    162, 2.55276e-06, 0.000121009, 0, 0
    163, 2.58862e-06, 0.000114515, 0, 0
    164, 2.40108e-06, 0.000112892, 0, 0
    165, 2.43074e-06, 0.000106908, 0, 0
    166, 2.25896e-06, 0.000105328, 0, 0
    167, 2.28321e-06, 9.98123e-05, 0, 0
    168, 2.12579e-06, 9.82771e-05, 0, 0
    169, 2.14532e-06, 9.3192e-05, 0, 0
    170, 2.00102e-06, 9.17049e-05, 0, 0
    171, 2.01724e-06, 8.69447e-05, 0, 0
    172, 1.88475e-06, 8.5566e-05, 0, 0
    173, 1.89779e-06, 8.11763e-05, 0, 0
    174, 1.77601e-06, 7.98243e-05, 0, 0
    175, 1.78663e-06, 7.57854e-05, 0, 0
    176, 1.67423e-06, 7.45289e-05, 0, 0
    177, 1.68205e-06, 7.07875e-05, 0, 0
    178, 1.57852e-06, 6.95743e-05, 0, 0
    179, 1.58465e-06, 6.61165e-05, 0, 0
    180, 1.48898e-06, 6.49546e-05, 0, 0
    181, 1.4927e-06, 6.17447e-05, 0, 0
    182, 1.40414e-06, 6.06407e-05, 0, 0
    183, 1.40582e-06, 5.76787e-05, 0, 0
    184, 1.32385e-06, 5.6616e-05, 0, 0
    185, 1.32397e-06, 5.38836e-05, 0, 0
    186, 1.24857e-06, 5.28636e-05, 0, 0
    187, 1.24811e-06, 5.02972e-05, 0, 0
    188, 1.17917e-06, 4.93334e-05, 0, 0
    189, 1.17778e-06, 4.69813e-05, 0, 0
    190, 1.11372e-06, 4.60884e-05, 0, 0
    191, 1.11116e-06, 4.39105e-05, 0, 0
    192, 1.0512e-06, 4.30608e-05, 0, 0
    193, 1.0474e-06, 4.10343e-05, 0, 0
    194, 9.91662e-07, 4.0223e-05, 0, 0
    195, 9.88131e-07, 3.83429e-05, 0, 0
    196, 9.36741e-07, 3.75804e-05, 0, 0
    197, 9.32859e-07, 3.58349e-05, 0, 0
    198, 8.8512e-07, 3.51166e-05, 0, 0
    199, 8.80743e-07, 3.34962e-05, 0, 0
    200, 8.36576e-07, 3.28137e-05, 0, 0
    201, 8.32412e-07, 3.13155e-05, 0, 0
    202, 7.91808e-07, 3.06646e-05, 0, 0
    203, 7.87523e-07, 2.92763e-05, 0, 0
    204, 7.50207e-07, 2.86625e-05, 0, 0
    205, 7.41938e-07, 2.72633e-05, 0, 0
    206, 7.08818e-07, 2.67335e-05, 0, 0
    207, 7.03126e-07, 2.55155e-05, 0, 0
    208, 6.7215e-07, 2.49944e-05, 0, 0
    209, 6.67056e-07, 2.38836e-05, 0, 0
    210, 6.37525e-07, 2.33709e-05, 0, 0
    211, 6.32003e-07, 2.23387e-05, 0, 0
    212, 6.04057e-07, 2.18476e-05, 0, 0
    213, 5.98471e-07, 2.08914e-05, 0, 0
    214, 5.72384e-07, 2.04282e-05, 0, 0
    215, 5.66912e-07, 1.95425e-05, 0, 0
    216, 5.42812e-07, 1.91064e-05, 0, 0
    217, 5.37599e-07, 1.82846e-05, 0, 0
    218, 5.15368e-07, 1.78736e-05, 0, 0
    219, 5.10313e-07, 1.71126e-05, 0, 0
    220, 4.89859e-07, 1.67252e-05, 0, 0
    221, 4.84632e-07, 1.60166e-05, 0, 0
    222, 4.65489e-07, 1.5653e-05, 0, 0
    223, 4.60141e-07, 1.49944e-05, 0, 0
    224, 4.42219e-07, 1.46505e-05, 0, 0
    225, 4.37022e-07, 1.40407e-05, 0, 0
    226, 4.20512e-07, 1.37141e-05, 0, 0
    227, 4.15494e-07, 1.31496e-05, 0, 0
    228, 4.0028e-07, 1.28399e-05, 0, 0
    229, 3.95351e-07, 1.23161e-05, 0, 0
    230, 3.81114e-07, 1.20249e-05, 0, 0
    231, 3.76267e-07, 1.15388e-05, 0, 0
    232, 3.62942e-07, 1.12637e-05, 0, 0
    233, 3.58289e-07, 1.0813e-05, 0, 0
    234, 3.46042e-07, 1.05542e-05, 0, 0
    235, 3.41434e-07, 1.01343e-05, 0, 0
    236, 3.29955e-07, 9.8911e-06, 0, 0
    237, 3.25493e-07, 9.50064e-06, 0, 0
    238, 3.14761e-07, 9.27214e-06, 0, 0
    239, 3.10436e-07, 8.90855e-06, 0, 0
    240, 3.00415e-07, 8.69444e-06, 0, 0
    241, 2.96234e-07, 8.35546e-06, 0, 0
    242, 2.86771e-07, 8.15287e-06, 0, 0
    243, 2.82773e-07, 7.84306e-06, 0, 0
    244, 2.73673e-07, 7.64909e-06, 0, 0
    245, 2.69694e-07, 7.35702e-06, 0, 0
    246, 2.61373e-07, 7.17442e-06, 0, 0
    247, 2.57678e-07, 6.90501e-06, 0, 0
    248, 2.50034e-07, 6.73489e-06, 0, 0
    249, 2.46478e-07, 6.48508e-06, 0, 0
    250, 2.39331e-07, 6.3246e-06, 0, 0
    251, 2.35888e-07, 6.09247e-06, 0, 0
    252, 2.29226e-07, 5.94084e-06, 0, 0
    253, 2.25887e-07, 5.72471e-06, 0, 0
    254, 2.19681e-07, 5.58168e-06, 0, 0
    255, 2.16446e-07, 5.38067e-06, 0, 0
    256, 2.10634e-07, 5.24579e-06, 0, 0
    257, 2.07526e-07, 5.0593e-06, 0, 0
    258, 2.02099e-07, 4.93222e-06, 0, 0
    259, 1.99075e-07, 4.75882e-06, 0, 0
    260, 1.94006e-07, 4.63917e-06, 0, 0
    261, 1.91077e-07, 4.47822e-06, 0, 0
    262, 1.86305e-07, 4.36514e-06, 0, 0
    263, 1.83465e-07, 4.21571e-06, 0, 0
    264, 1.79017e-07, 4.10911e-06, 0, 0
    265, 1.76249e-07, 3.97043e-06, 0, 0
    266, 1.72069e-07, 3.86967e-06, 0, 0
    267, 1.69375e-07, 3.7408e-06, 0, 0
    268, 1.65475e-07, 3.64558e-06, 0, 0
    269, 1.62877e-07, 3.5262e-06, 0, 0
    270, 1.59219e-07, 3.43601e-06, 0, 0
    271, 1.56691e-07, 3.32511e-06, 0, 0
    272, 1.53287e-07, 3.23989e-06, 0, 0
    273, 1.50848e-07, 3.13729e-06, 0, 0
    274, 1.47664e-07, 3.05658e-06, 0, 0
    275, 1.45282e-07, 2.96041e-06, 0, 0
    276, 1.42002e-07, 2.88286e-06, 0, 0
    277, 1.39362e-07, 2.79501e-06, 0, 0
    278, 1.36387e-07, 2.72271e-06, 0, 0
    279, 1.33916e-07, 2.64195e-06, 0, 0
    280, 1.31196e-07, 2.57295e-06, 0, 0
    281, 1.28914e-07, 2.49739e-06, 0, 0
    282, 1.26422e-07, 2.43224e-06, 0, 0
    283, 1.24297e-07, 2.36166e-06, 0, 0
    284, 1.2202e-07, 2.30052e-06, 0, 0
    285, 1.2002e-07, 2.2347e-06, 0, 0
    286, 1.17892e-07, 2.17723e-06, 0, 0
    287, 1.15968e-07, 2.11571e-06, 0, 0
    288, 1.13796e-07, 2.05818e-06, 0, 0
    289, 1.11932e-07, 2.00069e-06, 0, 0
    290, 1.10058e-07, 1.95038e-06, 0, 0
    291, 1.08379e-07, 1.89859e-06, 0, 0
    292, 1.0661e-07, 1.85067e-06, 0, 0
    293, 1.04935e-07, 1.80149e-06, 0, 0
    294, 1.03258e-07, 1.75622e-06, 0, 0
    295, 1.01655e-07, 1.7092e-06, 0, 0
    296, 1.00034e-07, 1.66692e-06, 0, 0
    The solver residual has converged
    297, 9.87707e-08, 1.61715e-06, 0, 0

Max sigmaEq (von Mises stress) = 4.05506e+07
ExecutionTime = 1.2 s  ClockTime = 1 s

Time = 30

Evolving solid solver
Solving the total Lagrangian form of the momentum equation for D
    Corr, res, relRes, matRes, iters
    1, 0.00080763, 0.426478, 0, 0
    2, 0.000395293, 0.349342, 0, 0
    3, 0.000726896, 0.207295, 0, 0
    4, 0.000371379, 0.205384, 0, 0
    5, 0.000651808, 0.134123, 0, 0
    6, 0.000342901, 0.142239, 0, 0
    7, 0.00059067, 0.0976248, 0, 0
    8, 0.000313177, 0.106738, 0, 0
    9, 0.000535202, 0.0756524, 0, 0
    10, 0.000287369, 0.0841397, 0, 0
    11, 0.000485472, 0.0610682, 0, 0
    12, 0.000266409, 0.0685445, 0, 0
    13, 0.000441668, 0.0506901, 0, 0
    14, 0.000248973, 0.0571608, 0, 0
    15, 0.00040256, 0.0429436, 0, 0
    16, 0.000231718, 0.0485522, 0, 0
    17, 0.000367089, 0.0369676, 0, 0
    18, 0.00021493, 0.0417466, 0, 0
    19, 0.000334787, 0.032176, 0, 0
    20, 0.000199161, 0.0363294, 0, 0
    21, 0.000306593, 0.0283099, 0, 0
    22, 0.000185333, 0.0318566, 0, 0
    23, 0.000281065, 0.0250774, 0, 0
    24, 0.0001729, 0.0281722, 0, 0
    25, 0.000258533, 0.0223817, 0, 0
    26, 0.000161697, 0.0250355, 0, 0
    27, 0.0002377, 0.0200606, 0, 0
    28, 0.000151236, 0.022369, 0, 0
    29, 0.000218621, 0.018072, 0, 0
    30, 0.000141356, 0.0200795, 0, 0
    31, 0.000201139, 0.016347, 0, 0
    32, 0.000132183, 0.0180962, 0, 0
    33, 0.000185274, 0.0148401, 0, 0
    34, 0.000123737, 0.0163665, 0, 0
    35, 0.000170922, 0.0135151, 0, 0
    36, 0.000115941, 0.0148483, 0, 0
    37, 0.00015791, 0.0123435, 0, 0
    38, 0.000108303, 0.0135185, 0, 0
    39, 0.000146185, 0.0113058, 0, 0
    40, 0.000101514, 0.012321, 0, 0
    41, 0.000135234, 0.0103671, 0, 0
    42, 9.49342e-05, 0.0112661, 0, 0
    43, 0.000125304, 0.00953342, 0, 0
    44, 8.89509e-05, 0.010309, 0, 0
    45, 0.000115957, 0.00877115, 0, 0
    46, 8.33625e-05, 0.00945216, 0, 0
    47, 0.000107403, 0.00808537, 0, 0
    48, 7.81965e-05, 0.00868188, 0, 0
    49, 9.95536e-05, 0.00746336, 0, 0
    50, 7.33719e-05, 0.00798586, 0, 0
    51, 9.23628e-05, 0.00689818, 0, 0
    52, 6.88522e-05, 0.00735539, 0, 0
    53, 8.5761e-05, 0.00638314, 0, 0
    54, 6.46273e-05, 0.00678295, 0, 0
    55, 7.96923e-05, 0.00591286, 0, 0
    56, 6.06676e-05, 0.00626194, 0, 0
    57, 7.407e-05, 0.00548224, 0, 0
    58, 5.69504e-05, 0.00578719, 0, 0
    59, 6.88659e-05, 0.00508752, 0, 0
    60, 5.34496e-05, 0.00535377, 0, 0
    61, 6.40473e-05, 0.00472444, 0, 0
    62, 5.01597e-05, 0.0049569, 0, 0
    63, 5.96147e-05, 0.0043903, 0, 0
    64, 4.70665e-05, 0.00459299, 0, 0
    65, 5.55056e-05, 0.00408701, 0, 0
    66, 4.41641e-05, 0.00426002, 0, 0
    67, 5.16818e-05, 0.00380241, 0, 0
    68, 4.13078e-05, 0.00395243, 0, 0
    69, 4.80088e-05, 0.00354238, 0, 0
    70, 3.87995e-05, 0.00367024, 0, 0
    71, 4.47283e-05, 0.00329803, 0, 0
    72, 3.63261e-05, 0.00340924, 0, 0
    73, 4.16825e-05, 0.00307511, 0, 0
    74, 3.41102e-05, 0.0031695, 0, 0
    75, 3.88453e-05, 0.00286535, 0, 0
    76, 3.2028e-05, 0.00294736, 0, 0
    77, 3.6244e-05, 0.00267191, 0, 0
    78, 3.00861e-05, 0.0027419, 0, 0
    79, 3.38364e-05, 0.00249233, 0, 0
    80, 2.82621e-05, 0.0025521, 0, 0
    81, 3.16057e-05, 0.00232569, 0, 0
    82, 2.65424e-05, 0.00237639, 0, 0
    83, 2.95312e-05, 0.002171, 0, 0
    84, 2.49248e-05, 0.00221391, 0, 0
    85, 2.75992e-05, 0.0020272, 0, 0
    86, 2.3403e-05, 0.00206326, 0, 0
    87, 2.57925e-05, 0.00189338, 0, 0
    88, 2.19752e-05, 0.00192346, 0, 0
    89, 2.41058e-05, 0.00176879, 0, 0
    90, 2.06323e-05, 0.00179364, 0, 0
    91, 2.25315e-05, 0.00165276, 0, 0
    92, 1.93717e-05, 0.00167307, 0, 0
    93, 2.10651e-05, 0.00154467, 0, 0
    94, 1.81864e-05, 0.00156103, 0, 0
    95, 1.96995e-05, 0.00144393, 0, 0
    96, 1.70752e-05, 0.00145688, 0, 0
    97, 1.84285e-05, 0.00135001, 0, 0
    98, 1.60314e-05, 0.00135998, 0, 0
    99, 1.72434e-05, 0.0012624, 0, 0
    100, 1.50528e-05, 0.00126981, 0, 0
    101, 1.61382e-05, 0.00118066, 0, 0
    102, 1.41443e-05, 0.00118585, 0, 0
    103, 1.51057e-05, 0.00110436, 0, 0
    104, 1.32929e-05, 0.00110767, 0, 0
    105, 1.4141e-05, 0.00103313, 0, 0
    106, 1.24919e-05, 0.00103482, 0, 0
    107, 1.3239e-05, 0.000966612, 0, 0
    108, 1.17389e-05, 0.00096693, 0, 0
    109, 1.23966e-05, 0.000904486, 0, 0
    110, 1.10317e-05, 0.000903639, 0, 0
    111, 1.16096e-05, 0.000846441, 0, 0
    112, 1.03678e-05, 0.000844622, 0, 0
    113, 1.08749e-05, 0.000792204, 0, 0
    114, 9.74456e-06, 0.00078957, 0, 0
    115, 1.01884e-05, 0.00074151, 0, 0
    116, 9.15944e-06, 0.000738208, 0, 0
    117, 9.54703e-06, 0.000694124, 0, 0
    118, 8.60986e-06, 0.000690274, 0, 0
    119, 8.9474e-06, 0.000649818, 0, 0
    120, 8.09341e-06, 0.000645532, 0, 0
    121, 8.38673e-06, 0.000608389, 0, 0
    122, 7.60813e-06, 0.000603758, 0, 0
    123, 7.86208e-06, 0.000569641, 0, 0
    124, 7.15224e-06, 0.00056475, 0, 0
    125, 7.37147e-06, 0.000533399, 0, 0
    126, 6.72394e-06, 0.000528315, 0, 0
    127, 6.91246e-06, 0.000499494, 0, 0
    128, 6.32182e-06, 0.00049428, 0, 0
    129, 6.48307e-06, 0.000467774, 0, 0
    130, 5.94427e-06, 0.00046248, 0, 0
    131, 6.0814e-06, 0.000438094, 0, 0
    132, 5.58987e-06, 0.000432764, 0, 0
    133, 5.70571e-06, 0.00041032, 0, 0
    134, 5.25703e-06, 0.000404993, 0, 0
    135, 5.35414e-06, 0.000384327, 0, 0
    136, 4.94437e-06, 0.000379034, 0, 0
    137, 5.02505e-06, 0.000359999, 0, 0
    138, 4.65066e-06, 0.000354766, 0, 0
    139, 4.71691e-06, 0.000337227, 0, 0
    140, 4.37477e-06, 0.000332077, 0, 0
    141, 4.42836e-06, 0.000315911, 0, 0
    142, 4.1157e-06, 0.00031086, 0, 0
    143, 4.15821e-06, 0.000295955, 0, 0
    144, 3.87235e-06, 0.00029102, 0, 0
    145, 3.90525e-06, 0.000277272, 0, 0
    146, 3.64385e-06, 0.000272463, 0, 0
    147, 3.66834e-06, 0.000259779, 0, 0
    148, 3.4292e-06, 0.000255106, 0, 0
    149, 3.44642e-06, 0.0002434, 0, 0
    150, 3.22754e-06, 0.000238869, 0, 0
    151, 3.23845e-06, 0.000228063, 0, 0
    152, 3.03812e-06, 0.00022368, 0, 0
    153, 3.04357e-06, 0.000213701, 0, 0
    154, 2.8602e-06, 0.000209468, 0, 0
    155, 2.861e-06, 0.000200251, 0, 0
    156, 2.69308e-06, 0.00019617, 0, 0
    157, 2.68986e-06, 0.000187655, 0, 0
    158, 2.53605e-06, 0.000183727, 0, 0
    159, 2.52938e-06, 0.000175858, 0, 0
    160, 2.38849e-06, 0.000172082, 0, 0
    161, 2.37891e-06, 0.000164809, 0, 0
    162, 2.24985e-06, 0.000161184, 0, 0
    163, 2.23734e-06, 0.00015445, 0, 0
    164, 2.12044e-06, 0.000151008, 0, 0
    165, 2.10563e-06, 0.000144741, 0, 0
    166, 1.99641e-06, 0.00014146, 0, 0
    167, 1.98134e-06, 0.00013566, 0, 0
    168, 1.88215e-06, 0.000132532, 0, 0
    169, 1.8656e-06, 0.000127164, 0, 0
    170, 1.77361e-06, 0.00012416, 0, 0
    171, 1.75589e-06, 0.000119189, 0, 0
    172, 1.67237e-06, 0.00011633, 0, 0
    173, 1.65376e-06, 0.000111726, 0, 0
    174, 1.57702e-06, 0.000108996, 0, 0
    175, 1.55752e-06, 0.000104734, 0, 0
    176, 1.48722e-06, 0.00010213, 0, 0
    177, 1.46725e-06, 9.81847e-05, 0, 0
    178, 1.40284e-06, 9.57031e-05, 0, 0
    179, 1.38261e-06, 9.20495e-05, 0, 0
    180, 1.3236e-06, 8.96853e-05, 0, 0
    181, 1.30323e-06, 8.63011e-05, 0, 0
    182, 1.24912e-06, 8.40501e-05, 0, 0
    183, 1.22873e-06, 8.09146e-05, 0, 0
    184, 1.17909e-06, 7.87731e-05, 0, 0
    185, 1.15898e-06, 7.58152e-05, 0, 0
    186, 1.11331e-06, 7.38134e-05, 0, 0
    187, 1.09388e-06, 7.10958e-05, 0, 0
    188, 1.05216e-06, 6.91574e-05, 0, 0
    189, 1.03282e-06, 6.66592e-05, 0, 0
    190, 9.94541e-07, 6.48385e-05, 0, 0
    191, 9.75515e-07, 6.25177e-05, 0, 0
    192, 9.4006e-07, 6.07907e-05, 0, 0
    193, 9.2144e-07, 5.86269e-05, 0, 0
    194, 8.88543e-07, 5.6995e-05, 0, 0
    195, 8.70571e-07, 5.49792e-05, 0, 0
    196, 8.39942e-07, 5.34431e-05, 0, 0
    197, 8.22616e-07, 5.15619e-05, 0, 0
    198, 7.9394e-07, 5.01174e-05, 0, 0
    199, 7.7731e-07, 4.83584e-05, 0, 0
    200, 7.50433e-07, 4.70009e-05, 0, 0
    201, 7.34595e-07, 4.5355e-05, 0, 0
    202, 7.0941e-07, 4.40806e-05, 0, 0
    203, 6.94414e-07, 4.25401e-05, 0, 0
    204, 6.70829e-07, 4.13449e-05, 0, 0
    205, 6.56718e-07, 3.98709e-05, 0, 0
    206, 6.34796e-07, 3.87563e-05, 0, 0
    207, 6.21786e-07, 3.74038e-05, 0, 0
    208, 6.01092e-07, 3.6366e-05, 0, 0
    209, 5.88536e-07, 3.51021e-05, 0, 0
    210, 5.68804e-07, 3.41209e-05, 0, 0
    211, 5.56759e-07, 3.29318e-05, 0, 0
    212, 5.38182e-07, 3.20094e-05, 0, 0
    213, 5.26831e-07, 3.08972e-05, 0, 0
    214, 5.09439e-07, 3.00346e-05, 0, 0
    215, 4.98779e-07, 2.89942e-05, 0, 0
    216, 4.82539e-07, 2.81865e-05, 0, 0
    217, 4.72532e-07, 2.72105e-05, 0, 0
    218, 4.57345e-07, 2.64525e-05, 0, 0
    219, 4.48012e-07, 2.55376e-05, 0, 0
    220, 4.3378e-07, 2.48276e-05, 0, 0
    221, 4.22829e-07, 2.38828e-05, 0, 0
    222, 4.10466e-07, 2.32504e-05, 0, 0
    223, 4.01993e-07, 2.24377e-05, 0, 0
    224, 3.90164e-07, 2.18276e-05, 0, 0
    225, 3.82511e-07, 2.10775e-05, 0, 0
    226, 3.70861e-07, 2.04925e-05, 0, 0
    227, 3.63323e-07, 1.97866e-05, 0, 0
    228, 3.52009e-07, 1.9236e-05, 0, 0
    229, 3.44737e-07, 1.85744e-05, 0, 0
    230, 3.34031e-07, 1.80594e-05, 0, 0
    231, 3.27169e-07, 1.74386e-05, 0, 0
    232, 3.17191e-07, 1.69576e-05, 0, 0
    233, 3.10842e-07, 1.63763e-05, 0, 0
    234, 3.01492e-07, 1.59246e-05, 0, 0
    235, 2.9559e-07, 1.53811e-05, 0, 0
    236, 2.86803e-07, 1.49582e-05, 0, 0
    237, 2.81188e-07, 1.44482e-05, 0, 0
    238, 2.72877e-07, 1.40524e-05, 0, 0
    239, 2.67502e-07, 1.35743e-05, 0, 0
    240, 2.59641e-07, 1.32025e-05, 0, 0
    241, 2.54571e-07, 1.27545e-05, 0, 0
    242, 2.47154e-07, 1.24047e-05, 0, 0
    243, 2.4239e-07, 1.19852e-05, 0, 0
    244, 2.35413e-07, 1.16574e-05, 0, 0
    245, 2.30892e-07, 1.12637e-05, 0, 0
    246, 2.24329e-07, 1.09571e-05, 0, 0
    247, 2.20017e-07, 1.05867e-05, 0, 0
    248, 2.13851e-07, 1.03004e-05, 0, 0
    249, 2.09771e-07, 9.95288e-06, 0, 0
    250, 2.0396e-07, 9.68423e-06, 0, 0
    251, 2.00097e-07, 9.35849e-06, 0, 0
    252, 1.94617e-07, 9.10681e-06, 0, 0
    253, 1.90981e-07, 8.80191e-06, 0, 0
    254, 1.85786e-07, 8.56416e-06, 0, 0
    255, 1.82373e-07, 8.27989e-06, 0, 0
    256, 1.77447e-07, 8.05591e-06, 0, 0
    257, 1.74213e-07, 7.78994e-06, 0, 0
    258, 1.69557e-07, 7.57958e-06, 0, 0
    259, 1.66443e-07, 7.3284e-06, 0, 0
    260, 1.62077e-07, 7.13443e-06, 0, 0
    261, 1.58987e-07, 6.89856e-06, 0, 0
    262, 1.54774e-07, 6.71203e-06, 0, 0
    263, 1.51918e-07, 6.49124e-06, 0, 0
    264, 1.48008e-07, 6.318e-06, 0, 0
    265, 1.45365e-07, 6.11229e-06, 0, 0
    266, 1.41689e-07, 5.95036e-06, 0, 0
    267, 1.39191e-07, 5.75715e-06, 0, 0
    268, 1.35726e-07, 5.60495e-06, 0, 0
    269, 1.33353e-07, 5.42334e-06, 0, 0
    270, 1.30086e-07, 5.28032e-06, 0, 0
    271, 1.27836e-07, 5.10987e-06, 0, 0
    272, 1.24747e-07, 4.97562e-06, 0, 0
    273, 1.226e-07, 4.81565e-06, 0, 0
    274, 1.19673e-07, 4.68973e-06, 0, 0
    275, 1.17627e-07, 4.53953e-06, 0, 0
    276, 1.14859e-07, 4.42146e-06, 0, 0
    277, 1.12912e-07, 4.28059e-06, 0, 0
    278, 1.10287e-07, 4.16979e-06, 0, 0
    279, 1.08432e-07, 4.03766e-06, 0, 0
    280, 1.05942e-07, 3.93364e-06, 0, 0
    281, 1.04166e-07, 3.80961e-06, 0, 0
    282, 1.01801e-07, 3.71191e-06, 0, 0
    283, 1.00106e-07, 3.59555e-06, 0, 0
    The solver residual has converged
    284, 9.78634e-08, 3.50375e-06, 0, 0

Max sigmaEq (von Mises stress) = 6.24023e+07
ExecutionTime = 1.76 s  ClockTime = 1 s

Time = 40

Evolving solid solver
Solving the total Lagrangian form of the momentum equation for D
    Corr, res, relRes, matRes, iters
    1, 0.000519944, 0.431905, 0, 0
    2, 0.00027221, 0.349157, 0, 0
    3, 0.000477987, 0.210887, 0, 0
    4, 0.000256676, 0.205572, 0, 0
    5, 0.000435125, 0.136779, 0, 0
    6, 0.000241027, 0.142438, 0, 0
    7, 0.000398454, 0.0997081, 0, 0
    8, 0.000222915, 0.107091, 0, 0
    9, 0.000364911, 0.077488, 0, 0
    10, 0.000207295, 0.084584, 0, 0
    11, 0.000334429, 0.0627025, 0, 0
    12, 0.000194876, 0.0690415, 0, 0
    13, 0.000307589, 0.0521798, 0, 0
    14, 0.000184194, 0.0577051, 0, 0
    15, 0.000282947, 0.044318, 0, 0
    16, 0.000173121, 0.0490891, 0, 0
    17, 0.000259795, 0.0382276, 0, 0
    18, 0.000161838, 0.0423355, 0, 0
    19, 0.000238981, 0.0333778, 0, 0
    20, 0.000151491, 0.0369129, 0, 0
    21, 0.00022048, 0.0294296, 0, 0
    22, 0.000142277, 0.0324744, 0, 0
    23, 0.000203901, 0.0261538, 0, 0
    24, 0.000133968, 0.0287784, 0, 0
    25, 0.000188899, 0.0233915, 0, 0
    26, 0.000126221, 0.0256571, 0, 0
    27, 0.000175035, 0.0210324, 0, 0
    28, 0.00011876, 0.0229917, 0, 0
    29, 0.000162043, 0.0189986, 0, 0
    30, 0.000111583, 0.0206968, 0, 0
    31, 0.000150009, 0.0172323, 0, 0
    32, 0.000104852, 0.0187065, 0, 0
    33, 0.000139042, 0.0156874, 0, 0
    34, 9.85984e-05, 0.0169688, 0, 0
    35, 0.000129086, 0.014327, 0, 0
    36, 9.27732e-05, 0.0154409, 0, 0
    37, 0.000120019, 0.0131207, 0, 0
    38, 8.7336e-05, 0.0140892, 0, 0
    39, 0.000111698, 0.0120446, 0, 0
    40, 8.22454e-05, 0.0128868, 0, 0
    41, 0.000104003, 0.0110797, 0, 0
    42, 7.74512e-05, 0.0118123, 0, 0
    43, 9.68395e-05, 0.0102112, 0, 0
    44, 7.29126e-05, 0.0108484, 0, 0
    45, 9.01835e-05, 0.00942653, 0, 0
    46, 6.86239e-05, 0.00998086, 0, 0
    47, 8.40035e-05, 0.00871576, 0, 0
    48, 6.45846e-05, 0.00919748, 0, 0
    49, 7.83027e-05, 0.00806953, 0, 0
    50, 6.07929e-05, 0.00848825, 0, 0
    51, 7.30251e-05, 0.00748091, 0, 0
    52, 5.7235e-05, 0.00784421, 0, 0
    53, 6.81648e-05, 0.00694323, 0, 0
    54, 5.39001e-05, 0.00725813, 0, 0
    55, 6.36613e-05, 0.00645112, 0, 0
    56, 5.0763e-05, 0.00672336, 0, 0
    57, 5.94863e-05, 0.00599932, 0, 0
    58, 4.78092e-05, 0.00623455, 0, 0
    59, 5.55954e-05, 0.00558406, 0, 0
    60, 4.50212e-05, 0.00578673, 0, 0
    61, 5.19666e-05, 0.00520159, 0, 0
    62, 4.2393e-05, 0.00537572, 0, 0
    63, 4.85825e-05, 0.00484878, 0, 0
    64, 3.99159e-05, 0.00499787, 0, 0
    65, 4.54374e-05, 0.00452289, 0, 0
    66, 3.75889e-05, 0.0046501, 0, 0
    67, 4.25133e-05, 0.00422155, 0, 0
    68, 3.54002e-05, 0.00432948, 0, 0
    69, 3.97947e-05, 0.0039425, 0, 0
    70, 3.33436e-05, 0.00403364, 0, 0
    71, 3.7268e-05, 0.00368388, 0, 0
    72, 3.1407e-05, 0.00376025, 0, 0
    73, 3.49106e-05, 0.00344381, 0, 0
    74, 2.9518e-05, 0.00350583, 0, 0
    75, 3.26921e-05, 0.00321954, 0, 0
    76, 2.78214e-05, 0.00327275, 0, 0
    77, 3.06501e-05, 0.00301322, 0, 0
    78, 2.62453e-05, 0.00305619, 0, 0
    79, 2.87191e-05, 0.00281888, 0, 0
    80, 2.4754e-05, 0.00285601, 0, 0
    81, 2.69239e-05, 0.00263923, 0, 0
    82, 2.33459e-05, 0.00266998, 0, 0
    83, 2.52545e-05, 0.00247191, 0, 0
    84, 2.20122e-05, 0.00249673, 0, 0
    85, 2.36879e-05, 0.00231834, 0, 0
    86, 2.07025e-05, 0.0023343, 0, 0
    87, 2.22082e-05, 0.00217043, 0, 0
    88, 1.95178e-05, 0.00218513, 0, 0
    89, 2.08287e-05, 0.00203713, 0, 0
    90, 1.83691e-05, 0.00204465, 0, 0
    91, 1.95392e-05, 0.00190807, 0, 0
    92, 1.73196e-05, 0.00191518, 0, 0
    93, 1.83344e-05, 0.00179171, 0, 0
    94, 1.63062e-05, 0.00179315, 0, 0
    95, 1.72117e-05, 0.00168063, 0, 0
    96, 1.53611e-05, 0.00167951, 0, 0
    97, 1.61624e-05, 0.00157702, 0, 0
    98, 1.44771e-05, 0.00157375, 0, 0
    99, 1.51834e-05, 0.00148004, 0, 0
    100, 1.36476e-05, 0.00147498, 0, 0
    101, 1.42659e-05, 0.00138926, 0, 0
    102, 1.28684e-05, 0.00138282, 0, 0
    103, 1.34079e-05, 0.00130429, 0, 0
    104, 1.21347e-05, 0.00129666, 0, 0
    105, 1.26014e-05, 0.00122463, 0, 0
    106, 1.14434e-05, 0.00121606, 0, 0
    107, 1.18469e-05, 0.00114998, 0, 0
    108, 1.07919e-05, 0.00114067, 0, 0
    109, 1.11381e-05, 0.00108001, 0, 0
    110, 1.01773e-05, 0.00107015, 0, 0
    111, 1.04735e-05, 0.00101445, 0, 0
    112, 9.59738e-06, 0.00100417, 0, 0
    113, 9.84882e-06, 0.000952984, 0, 0
    114, 9.05002e-06, 0.0009424, 0, 0
    115, 9.26248e-06, 0.00089534, 0, 0
    116, 8.53399e-06, 0.000884551, 0, 0
    117, 8.71171e-06, 0.00084126, 0, 0
    118, 8.04767e-06, 0.000830362, 0, 0
    119, 8.19503e-06, 0.000790523, 0, 0
    120, 7.58946e-06, 0.000779591, 0, 0
    121, 7.70998e-06, 0.000742913, 0, 0
    122, 7.15748e-06, 0.000732014, 0, 0
    123, 7.2545e-06, 0.000698235, 0, 0
    124, 6.75021e-06, 0.000687419, 0, 0
    125, 6.82641e-06, 0.000656297, 0, 0
    126, 6.3661e-06, 0.000645609, 0, 0
    127, 6.4241e-06, 0.000616925, 0, 0
    128, 6.00401e-06, 0.000606403, 0, 0
    129, 6.04602e-06, 0.000579958, 0, 0
    130, 5.66275e-06, 0.000569632, 0, 0
    131, 5.6908e-06, 0.000545243, 0, 0
    132, 5.34125e-06, 0.000535139, 0, 0
    133, 5.35703e-06, 0.000512641, 0, 0
    134, 5.03826e-06, 0.000502778, 0, 0
    135, 5.04344e-06, 0.000482018, 0, 0
    136, 4.75265e-06, 0.000472412, 0, 0
    137, 4.74664e-06, 0.000453215, 0, 0
    138, 4.48559e-06, 0.000443956, 0, 0
    139, 4.4723e-06, 0.000426214, 0, 0
    140, 4.23007e-06, 0.000417199, 0, 0
    141, 4.21073e-06, 0.000400811, 0, 0
    142, 3.99005e-06, 0.000392091, 0, 0
    143, 3.96492e-06, 0.000376923, 0, 0
    144, 3.76647e-06, 0.000368543, 0, 0
    145, 3.73608e-06, 0.000354495, 0, 0
    146, 3.55427e-06, 0.000346414, 0, 0
    147, 3.52037e-06, 0.000333432, 0, 0
    148, 3.35264e-06, 0.000325621, 0, 0
    149, 3.31528e-06, 0.000313596, 0, 0
    150, 3.16467e-06, 0.000306122, 0, 0
    151, 3.12497e-06, 0.000294971, 0, 0
    152, 2.98696e-06, 0.000287802, 0, 0
    153, 2.94517e-06, 0.000277454, 0, 0
    154, 2.81889e-06, 0.000270598, 0, 0
    155, 2.77628e-06, 0.000260983, 0, 0
    156, 2.66046e-06, 0.000254444, 0, 0
    157, 2.61777e-06, 0.000245492, 0, 0
    158, 2.51102e-06, 0.000239275, 0, 0
    159, 2.46891e-06, 0.000230921, 0, 0
    160, 2.37003e-06, 0.000225026, 0, 0
    161, 2.32899e-06, 0.000217216, 0, 0
    162, 2.23697e-06, 0.000211641, 0, 0
    163, 2.19739e-06, 0.000204327, 0, 0
    164, 2.11144e-06, 0.000199066, 0, 0
    165, 2.07359e-06, 0.000192207, 0, 0
    166, 1.99311e-06, 0.000187249, 0, 0
    167, 1.95709e-06, 0.000180812, 0, 0
    168, 1.88157e-06, 0.000176143, 0, 0
    169, 1.84741e-06, 0.000170097, 0, 0
    170, 1.77647e-06, 0.000165703, 0, 0
    171, 1.74412e-06, 0.000160022, 0, 0
    172, 1.67742e-06, 0.000155889, 0, 0
    173, 1.64684e-06, 0.000150549, 0, 0
    174, 1.58412e-06, 0.000146662, 0, 0
    175, 1.55524e-06, 0.000141641, 0, 0
    176, 1.49622e-06, 0.000137986, 0, 0
    177, 1.46895e-06, 0.000133266, 0, 0
    178, 1.41341e-06, 0.000129829, 0, 0
    179, 1.38768e-06, 0.00012539, 0, 0
    180, 1.33541e-06, 0.000122158, 0, 0
    181, 1.31113e-06, 0.000117983, 0, 0
    182, 1.26192e-06, 0.000114945, 0, 0
    183, 1.23899e-06, 0.000111019, 0, 0
    184, 1.19265e-06, 0.000108162, 0, 0
    185, 1.17098e-06, 0.000104469, 0, 0
    186, 1.12732e-06, 0.000101783, 0, 0
    187, 1.10686e-06, 9.83091e-05, 0, 0
    188, 1.06572e-06, 9.57836e-05, 0, 0
    189, 1.04641e-06, 9.25161e-05, 0, 0
    190, 1.00766e-06, 9.01413e-05, 0, 0
    191, 9.89411e-07, 8.70677e-05, 0, 0
    192, 9.52906e-07, 8.48347e-05, 0, 0
    193, 9.35673e-07, 8.19433e-05, 0, 0
    194, 9.01279e-07, 7.98435e-05, 0, 0
    195, 8.84993e-07, 7.71235e-05, 0, 0
    196, 8.52581e-07, 7.51489e-05, 0, 0
    197, 8.37195e-07, 7.259e-05, 0, 0
    198, 8.06652e-07, 7.07331e-05, 0, 0
    199, 7.9211e-07, 6.83257e-05, 0, 0
    200, 7.63324e-07, 6.65792e-05, 0, 0
    201, 7.49578e-07, 6.4273e-05, 0, 0
    202, 7.22518e-07, 6.26206e-05, 0, 0
    203, 7.1004e-07, 6.04963e-05, 0, 0
    204, 6.84718e-07, 5.89663e-05, 0, 0
    205, 6.72682e-07, 5.6967e-05, 0, 0
    206, 6.48635e-07, 5.55176e-05, 0, 0
    207, 6.37115e-07, 5.36287e-05, 0, 0
    208, 6.14479e-07, 5.22625e-05, 0, 0
    209, 6.03629e-07, 5.04879e-05, 0, 0
    210, 5.82273e-07, 4.9205e-05, 0, 0
    211, 5.71899e-07, 4.75368e-05, 0, 0
    212, 5.51681e-07, 4.63308e-05, 0, 0
    213, 5.41756e-07, 4.476e-05, 0, 0
    214, 5.22631e-07, 4.36248e-05, 0, 0
    215, 5.1317e-07, 4.21455e-05, 0, 0
    216, 4.95111e-07, 4.10771e-05, 0, 0
    217, 4.86161e-07, 3.96849e-05, 0, 0
    218, 4.69157e-07, 3.86801e-05, 0, 0
    219, 4.60732e-07, 3.73704e-05, 0, 0
    220, 4.44752e-07, 3.64258e-05, 0, 0
    221, 4.36822e-07, 3.51932e-05, 0, 0
    222, 4.21711e-07, 3.42821e-05, 0, 0
    223, 4.1435e-07, 3.31239e-05, 0, 0
    224, 4.00124e-07, 3.22889e-05, 0, 0
    225, 3.93116e-07, 3.12054e-05, 0, 0
    226, 3.7953e-07, 3.04197e-05, 0, 0
    227, 3.72765e-07, 2.93961e-05, 0, 0
    228, 3.59956e-07, 2.86527e-05, 0, 0
    229, 3.53536e-07, 2.76864e-05, 0, 0
    230, 3.41484e-07, 2.69882e-05, 0, 0
    231, 3.35445e-07, 2.60806e-05, 0, 0
    232, 3.24133e-07, 2.54251e-05, 0, 0
    233, 3.18455e-07, 2.4571e-05, 0, 0
    234, 3.07843e-07, 2.39544e-05, 0, 0
    235, 3.02489e-07, 2.31495e-05, 0, 0
    236, 2.92511e-07, 2.25693e-05, 0, 0
    237, 2.8744e-07, 2.18107e-05, 0, 0
    238, 2.78034e-07, 2.12649e-05, 0, 0
    239, 2.71913e-07, 2.04829e-05, 0, 0
    240, 2.6385e-07, 1.99984e-05, 0, 0
    241, 2.59171e-07, 1.93175e-05, 0, 0
    242, 2.51323e-07, 1.88462e-05, 0, 0
    243, 2.47187e-07, 1.82164e-05, 0, 0
    244, 2.39445e-07, 1.77612e-05, 0, 0
    245, 2.35289e-07, 1.71668e-05, 0, 0
    246, 2.27694e-07, 1.67357e-05, 0, 0
    247, 2.23663e-07, 1.6177e-05, 0, 0
    248, 2.16449e-07, 1.57718e-05, 0, 0
    249, 2.12652e-07, 1.5246e-05, 0, 0
    250, 2.05924e-07, 1.48651e-05, 0, 0
    251, 2.02417e-07, 1.43708e-05, 0, 0
    252, 1.96124e-07, 1.40122e-05, 0, 0
    253, 1.92824e-07, 1.35472e-05, 0, 0
    254, 1.86906e-07, 1.32114e-05, 0, 0
    255, 1.83736e-07, 1.27724e-05, 0, 0
    256, 1.78125e-07, 1.24569e-05, 0, 0
    257, 1.75097e-07, 1.20436e-05, 0, 0
    258, 1.69791e-07, 1.1747e-05, 0, 0
    259, 1.66879e-07, 1.1357e-05, 0, 0
    260, 1.61861e-07, 1.10777e-05, 0, 0
    261, 1.59105e-07, 1.07107e-05, 0, 0
    262, 1.54373e-07, 1.04474e-05, 0, 0
    263, 1.51753e-07, 1.01014e-05, 0, 0
    264, 1.47289e-07, 9.85406e-06, 0, 0
    265, 1.44829e-07, 9.52942e-06, 0, 0
    266, 1.40588e-07, 9.29508e-06, 0, 0
    267, 1.38276e-07, 8.99017e-06, 0, 0
    268, 1.34274e-07, 8.76999e-06, 0, 0
    269, 1.3206e-07, 8.48222e-06, 0, 0
    270, 1.28284e-07, 8.2757e-06, 0, 0
    271, 1.26172e-07, 8.00463e-06, 0, 0
    272, 1.22581e-07, 7.80903e-06, 0, 0
    273, 1.20594e-07, 7.55459e-06, 0, 0
    274, 1.17195e-07, 7.37043e-06, 0, 0
    275, 1.15303e-07, 7.13087e-06, 0, 0
    276, 1.12082e-07, 6.95746e-06, 0, 0
    277, 1.10275e-07, 6.73166e-06, 0, 0
    278, 1.07228e-07, 6.56851e-06, 0, 0
    279, 1.055e-07, 6.35564e-06, 0, 0
    280, 1.02619e-07, 6.20233e-06, 0, 0
    281, 1.00965e-07, 6.00153e-06, 0, 0
    The solver residual has converged
    282, 9.82379e-08, 5.85651e-06, 0, 0

Max sigmaEq (von Mises stress) = 8.55764e+07
ExecutionTime = 2.32 s  ClockTime = 2 s

Time = 50

Evolving solid solver
Solving the total Lagrangian form of the momentum equation for D
    Corr, res, relRes, matRes, iters
    1, 0.000375374, 0.438248, 0, 0
    2, 0.00020986, 0.349015, 0, 0
    3, 0.000349907, 0.214566, 0, 0
    4, 0.000198479, 0.205565, 0, 0
    5, 0.000322049, 0.139377, 0, 0
    6, 0.00018838, 0.14256, 0, 0
    7, 0.000296788, 0.101765, 0, 0
    8, 0.000175098, 0.107322, 0, 0
    9, 0.000273307, 0.0792168, 0, 0
    10, 0.000163974, 0.0848919, 0, 0
    11, 0.000252354, 0.0642106, 0, 0
    12, 0.000155593, 0.0694203, 0, 0
    13, 0.000234166, 0.0535474, 0, 0
    14, 0.000148283, 0.058155, 0, 0
    15, 0.000216967, 0.0455895, 0, 0
    16, 0.000140098, 0.0495942, 0, 0
    17, 0.000200485, 0.0394224, 0, 0
    18, 0.000131634, 0.04288, 0, 0
    19, 0.000185578, 0.0345071, 0, 0
    20, 0.000123932, 0.037485, 0, 0
    21, 0.000172306, 0.0305002, 0, 0
    22, 0.000117133, 0.0330647, 0, 0
    23, 0.000160433, 0.0271695, 0, 0
    24, 0.000110947, 0.0293768, 0, 0
    25, 0.000149592, 0.0243548, 0, 0
    26, 0.00010506, 0.0262563, 0, 0
    27, 0.000139421, 0.0219475, 0, 0
    28, 9.92625e-05, 0.0235877, 0, 0
    29, 0.000129751, 0.0198708, 0, 0
    30, 9.36694e-05, 0.021289, 0, 0
    31, 0.000120765, 0.0180671, 0, 0
    32, 8.84166e-05, 0.0192949, 0, 0
    33, 0.000112577, 0.0164891, 0, 0
    34, 8.35305e-05, 0.0175526, 0, 0
    35, 0.000105114, 0.015098, 0, 0
    36, 7.89558e-05, 0.0160183, 0, 0
    37, 9.82657e-05, 0.0138621, 0, 0
    38, 7.46578e-05, 0.0146584, 0, 0
    39, 9.19348e-05, 0.0127576, 0, 0
    40, 7.06019e-05, 0.0134461, 0, 0
    41, 8.6035e-05, 0.0117654, 0, 0
    42, 6.67477e-05, 0.0123609, 0, 0
    43, 8.05033e-05, 0.0108711, 0, 0
    44, 6.30781e-05, 0.0113856, 0, 0
    45, 7.53354e-05, 0.0100619, 0, 0
    46, 5.9602e-05, 0.0105065, 0, 0
    47, 7.05122e-05, 0.00932801, 0, 0
    48, 5.63193e-05, 0.00971127, 0, 0
    49, 6.60478e-05, 0.00866005, 0, 0
    50, 5.32297e-05, 0.0089901, 0, 0
    51, 6.19039e-05, 0.00805061, 0, 0
    52, 5.03157e-05, 0.00833391, 0, 0
    53, 5.80757e-05, 0.00749281, 0, 0
    54, 4.75732e-05, 0.00773564, 0, 0
    55, 5.4497e-05, 0.00698118, 0, 0
    56, 4.49785e-05, 0.00718843, 0, 0
    57, 5.11515e-05, 0.00651072, 0, 0
    58, 4.25204e-05, 0.00668705, 0, 0
    59, 4.80189e-05, 0.00607737, 0, 0
    60, 4.01873e-05, 0.0062266, 0, 0
    61, 4.50845e-05, 0.00567742, 0, 0
    62, 3.79827e-05, 0.00580313, 0, 0
    63, 4.23425e-05, 0.00530787, 0, 0
    64, 3.59001e-05, 0.00541291, 0, 0
    65, 3.97813e-05, 0.00496574, 0, 0
    66, 3.3937e-05, 0.00505289, 0, 0
    67, 3.73894e-05, 0.00464871, 0, 0
    68, 3.20826e-05, 0.00472016, 0, 0
    69, 3.51562e-05, 0.00435453, 0, 0
    70, 3.03323e-05, 0.0044124, 0, 0
    71, 3.30636e-05, 0.00408129, 0, 0
    72, 2.86753e-05, 0.00412723, 0, 0
    73, 3.1101e-05, 0.00382707, 0, 0
    74, 2.71076e-05, 0.00386276, 0, 0
    75, 2.92592e-05, 0.0035904, 0, 0
    76, 2.56232e-05, 0.00361713, 0, 0
    77, 2.75322e-05, 0.00336981, 0, 0
    78, 2.4221e-05, 0.00338898, 0, 0
    79, 2.5913e-05, 0.00316408, 0, 0
    80, 2.2896e-05, 0.00317725, 0, 0
    81, 2.43932e-05, 0.00297201, 0, 0
    82, 2.16443e-05, 0.00298005, 0, 0
    83, 2.29696e-05, 0.00279269, 0, 0
    84, 2.04619e-05, 0.00279621, 0, 0
    85, 2.1632e-05, 0.00262495, 0, 0
    86, 1.93441e-05, 0.00262373, 0, 0
    87, 2.04151e-05, 0.00246955, 0, 0
    88, 1.83107e-05, 0.00246489, 0, 0
    89, 1.92271e-05, 0.00232179, 0, 0
    90, 1.7319e-05, 0.00231505, 0, 0
    91, 1.8111e-05, 0.002184, 0, 0
    92, 1.6374e-05, 0.00217531, 0, 0
    93, 1.70608e-05, 0.00205512, 0, 0
    94, 1.54774e-05, 0.0020446, 0, 0
    95, 1.60716e-05, 0.00193425, 0, 0
    96, 1.4633e-05, 0.00192232, 0, 0
    97, 1.5147e-05, 0.00182107, 0, 0
    98, 1.38374e-05, 0.00180794, 0, 0
    99, 1.42789e-05, 0.00171485, 0, 0
    100, 1.3086e-05, 0.00170066, 0, 0
    101, 1.3464e-05, 0.00161507, 0, 0
    102, 1.23763e-05, 0.00160006, 0, 0
    103, 1.26976e-05, 0.00152134, 0, 0
    104, 1.17056e-05, 0.00150574, 0, 0
    105, 1.19765e-05, 0.00143332, 0, 0
    106, 1.10713e-05, 0.00141732, 0, 0
    107, 1.12961e-05, 0.00135064, 0, 0
    108, 1.04708e-05, 0.00133434, 0, 0
    109, 1.06563e-05, 0.00127293, 0, 0
    110, 9.90297e-06, 0.00125644, 0, 0
    111, 1.0053e-05, 0.00119984, 0, 0
    112, 9.36634e-06, 0.00118328, 0, 0
    113, 9.48579e-06, 0.00113224, 0, 0
    114, 8.84157e-06, 0.00111376, 0, 0
    115, 8.94425e-06, 0.00106736, 0, 0
    116, 8.37108e-06, 0.00104939, 0, 0
    117, 8.44829e-06, 0.00100547, 0, 0
    118, 7.90991e-06, 0.000989199, 0, 0
    119, 7.97205e-06, 0.000949217, 0, 0
    120, 7.49642e-06, 0.000931913, 0, 0
    121, 7.53068e-06, 0.000893895, 0, 0
    122, 7.10077e-06, 0.000878903, 0, 0
    123, 7.11753e-06, 0.000844462, 0, 0
    124, 6.71575e-06, 0.000827828, 0, 0
    125, 6.7135e-06, 0.000795986, 0, 0
    126, 6.36065e-06, 0.000780289, 0, 0
    127, 6.34445e-06, 0.000750972, 0, 0
    128, 6.02267e-06, 0.000735729, 0, 0
    129, 5.99342e-06, 0.000708553, 0, 0
    130, 5.7016e-06, 0.00069374, 0, 0
    131, 5.66561e-06, 0.00066862, 0, 0
    132, 5.39576e-06, 0.000654205, 0, 0
    133, 5.35147e-06, 0.000630879, 0, 0
    134, 5.11036e-06, 0.000617022, 0, 0
    135, 5.05963e-06, 0.000595307, 0, 0
    136, 4.83762e-06, 0.00058142, 0, 0
    137, 4.78227e-06, 0.00056208, 0, 0
    138, 4.57292e-06, 0.000549018, 0, 0
    139, 4.51812e-06, 0.000530188, 0, 0
    140, 4.32642e-06, 0.000517887, 0, 0
    141, 4.27023e-06, 0.000500276, 0, 0
    142, 4.09253e-06, 0.000488667, 0, 0
    143, 4.03643e-06, 0.000472127, 0, 0
    144, 3.87075e-06, 0.000461117, 0, 0
    145, 3.81676e-06, 0.000445157, 0, 0
    146, 3.66226e-06, 0.000435416, 0, 0
    147, 3.60674e-06, 0.000420575, 0, 0
    148, 3.464e-06, 0.000410782, 0, 0
    149, 3.4128e-06, 0.000396888, 0, 0
    150, 3.27683e-06, 0.000387642, 0, 0
    151, 3.22867e-06, 0.000374627, 0, 0
    152, 3.09936e-06, 0.000365881, 0, 0
    153, 3.05383e-06, 0.000353625, 0, 0
    154, 2.9317e-06, 0.000345374, 0, 0
    155, 2.88904e-06, 0.00033383, 0, 0
    156, 2.77397e-06, 0.000326047, 0, 0
    157, 2.73395e-06, 0.000315156, 0, 0
    158, 2.62534e-06, 0.000307803, 0, 0
    159, 2.5876e-06, 0.000297524, 0, 0
    160, 2.48485e-06, 0.000290582, 0, 0
    161, 2.44906e-06, 0.000280887, 0, 0
    162, 2.35181e-06, 0.000274339, 0, 0
    163, 2.31781e-06, 0.000265195, 0, 0
    164, 2.22573e-06, 0.000259019, 0, 0
    165, 2.19348e-06, 0.000250393, 0, 0
    166, 2.10642e-06, 0.000244563, 0, 0
    167, 2.07594e-06, 0.000236425, 0, 0
    168, 1.99368e-06, 0.000230922, 0, 0
    169, 1.96493e-06, 0.000223243, 0, 0
    170, 1.88721e-06, 0.000218049, 0, 0
    171, 1.86007e-06, 0.000210804, 0, 0
    172, 1.78659e-06, 0.000205901, 0, 0
    173, 1.76092e-06, 0.000199065, 0, 0
    174, 1.69146e-06, 0.000194437, 0, 0
    175, 1.66715e-06, 0.000187986, 0, 0
    176, 1.60149e-06, 0.000183618, 0, 0
    177, 1.57848e-06, 0.000177529, 0, 0
    178, 1.51643e-06, 0.000173406, 0, 0
    179, 1.49468e-06, 0.000167659, 0, 0
    180, 1.43606e-06, 0.000163768, 0, 0
    181, 1.41551e-06, 0.000158343, 0, 0
    182, 1.36012e-06, 0.000154671, 0, 0
    183, 1.34068e-06, 0.000149548, 0, 0
    184, 1.28836e-06, 0.000146083, 0, 0
    185, 1.26996e-06, 0.000141248, 0, 0
    186, 1.22049e-06, 0.000137976, 0, 0
    187, 1.20305e-06, 0.000133406, 0, 0
    188, 1.15635e-06, 0.000130324, 0, 0
    189, 1.13981e-06, 0.000126012, 0, 0
    190, 1.09561e-06, 0.000123098, 0, 0
    191, 1.07993e-06, 0.000119023, 0, 0
    192, 1.03821e-06, 0.000116278, 0, 0
    193, 1.02334e-06, 0.000112432, 0, 0
    194, 9.83871e-07, 0.000109836, 0, 0
    195, 9.69771e-07, 0.000106205, 0, 0
    196, 9.32464e-07, 0.000103755, 0, 0
    197, 9.1911e-07, 0.000100328, 0, 0
    198, 8.83813e-07, 9.80138e-05, 0, 0
    199, 8.71156e-07, 9.47742e-05, 0, 0
    200, 8.37847e-07, 9.25943e-05, 0, 0
    201, 8.25855e-07, 8.95354e-05, 0, 0
    202, 7.94347e-07, 8.74748e-05, 0, 0
    203, 7.82989e-07, 8.45871e-05, 0, 0
    204, 7.53182e-07, 8.26406e-05, 0, 0
    205, 7.42432e-07, 7.99138e-05, 0, 0
    206, 7.14257e-07, 7.80763e-05, 0, 0
    207, 7.04069e-07, 7.55015e-05, 0, 0
    208, 6.77415e-07, 7.37659e-05, 0, 0
    209, 6.67762e-07, 7.13337e-05, 0, 0
    210, 6.42581e-07, 6.9696e-05, 0, 0
    211, 6.33429e-07, 6.73995e-05, 0, 0
    212, 6.09611e-07, 6.58521e-05, 0, 0
    213, 6.0093e-07, 6.36818e-05, 0, 0
    214, 5.78441e-07, 6.22227e-05, 0, 0
    215, 5.70207e-07, 6.01733e-05, 0, 0
    216, 5.4892e-07, 5.87941e-05, 0, 0
    217, 5.41098e-07, 5.68577e-05, 0, 0
    218, 5.2099e-07, 5.55569e-05, 0, 0
    219, 5.13573e-07, 5.37283e-05, 0, 0
    220, 4.94539e-07, 5.24989e-05, 0, 0
    221, 4.87502e-07, 5.07711e-05, 0, 0
    222, 4.69519e-07, 4.96111e-05, 0, 0
    223, 4.62806e-07, 4.79504e-05, 0, 0
    224, 4.45833e-07, 4.68729e-05, 0, 0
    225, 4.39654e-07, 4.53213e-05, 0, 0
    226, 4.23636e-07, 4.43052e-05, 0, 0
    227, 4.17595e-07, 4.2838e-05, 0, 0
    228, 4.02424e-07, 4.18501e-05, 0, 0
    229, 3.96818e-07, 4.0474e-05, 0, 0
    230, 3.82561e-07, 3.95559e-05, 0, 0
    231, 3.77226e-07, 3.82597e-05, 0, 0
    232, 3.63648e-07, 3.73907e-05, 0, 0
    233, 3.58483e-07, 3.61631e-05, 0, 0
    234, 3.45595e-07, 3.53405e-05, 0, 0
    235, 3.40671e-07, 3.41805e-05, 0, 0
    236, 3.28468e-07, 3.34042e-05, 0, 0
    237, 3.23765e-07, 3.23087e-05, 0, 0
    238, 3.12201e-07, 3.15761e-05, 0, 0
    239, 3.07708e-07, 3.05408e-05, 0, 0
    240, 2.96753e-07, 2.98488e-05, 0, 0
    241, 2.92474e-07, 2.88703e-05, 0, 0
    242, 2.82111e-07, 2.82167e-05, 0, 0
    243, 2.78052e-07, 2.7292e-05, 0, 0
    244, 2.68263e-07, 2.66748e-05, 0, 0
    245, 2.64417e-07, 2.58011e-05, 0, 0
    246, 2.55168e-07, 2.52183e-05, 0, 0
    247, 2.51446e-07, 2.43759e-05, 0, 0
    248, 2.4273e-07, 2.38291e-05, 0, 0
    249, 2.39323e-07, 2.30475e-05, 0, 0
    250, 2.31011e-07, 2.2535e-05, 0, 0
    251, 2.27686e-07, 2.17984e-05, 0, 0
    252, 2.19744e-07, 2.13099e-05, 0, 0
    253, 2.16526e-07, 2.06107e-05, 0, 0
    254, 2.09012e-07, 2.01471e-05, 0, 0
    255, 2.05971e-07, 1.94875e-05, 0, 0
    256, 1.98893e-07, 1.90506e-05, 0, 0
    257, 1.96026e-07, 1.84287e-05, 0, 0
    258, 1.8937e-07, 1.80163e-05, 0, 0
    259, 1.86673e-07, 1.74285e-05, 0, 0
    260, 1.80398e-07, 1.70387e-05, 0, 0
    261, 1.77847e-07, 1.64827e-05, 0, 0
    262, 1.71915e-07, 1.61142e-05, 0, 0
    263, 1.69493e-07, 1.55885e-05, 0, 0
    264, 1.63877e-07, 1.52405e-05, 0, 0
    265, 1.60738e-07, 1.46973e-05, 0, 0
    266, 1.55904e-07, 1.43881e-05, 0, 0
    267, 1.5359e-07, 1.39128e-05, 0, 0
    268, 1.48829e-07, 1.36099e-05, 0, 0
    269, 1.46828e-07, 1.31685e-05, 0, 0
    270, 1.4215e-07, 1.28752e-05, 0, 0
    271, 1.40118e-07, 1.24564e-05, 0, 0
    272, 1.35543e-07, 1.21776e-05, 0, 0
    273, 1.33539e-07, 1.17816e-05, 0, 0
    274, 1.29186e-07, 1.15186e-05, 0, 0
    275, 1.27297e-07, 1.11444e-05, 0, 0
    276, 1.23221e-07, 1.08964e-05, 0, 0
    277, 1.21469e-07, 1.0543e-05, 0, 0
    278, 1.17638e-07, 1.03091e-05, 0, 0
    279, 1.1599e-07, 9.97533e-06, 0, 0
    280, 1.12362e-07, 9.75496e-06, 0, 0
    281, 1.1078e-07, 9.43965e-06, 0, 0
    282, 1.07322e-07, 9.23128e-06, 0, 0
    283, 1.05796e-07, 8.9332e-06, 0, 0
    284, 1.02508e-07, 8.73623e-06, 0, 0
    285, 1.01041e-07, 8.45425e-06, 0, 0
    The solver residual has converged
    286, 9.79275e-08, 8.26794e-06, 0, 0

Max sigmaEq (von Mises stress) = 1.10339e+08
ExecutionTime = 2.87 s  ClockTime = 3 s

Time = 60

Evolving solid solver
Solving the total Lagrangian form of the momentum equation for D
    Corr, res, relRes, matRes, iters
    1, 0.000287867, 0.445293, 0, 0
    2, 0.000172428, 0.349141, 0, 0
    3, 0.000272156, 0.218909, 0, 0
    4, 0.000162575, 0.205608, 0, 0
    5, 0.000252642, 0.142141, 0, 0
    6, 0.000156278, 0.142572, 0, 0
    7, 0.00023382, 0.10383, 0, 0
    8, 0.00014541, 0.107509, 0, 0
    9, 0.000216289, 0.0809056, 0, 0
    10, 0.000136997, 0.0851662, 0, 0
    11, 0.000201298, 0.0656836, 0, 0
    12, 0.000131107, 0.0697309, 0, 0
    13, 0.000188206, 0.054875, 0, 0
    14, 0.000125584, 0.0585534, 0, 0
    15, 0.000175322, 0.0468101, 0, 0
    16, 0.000119134, 0.050055, 0, 0
    17, 0.000162872, 0.0405613, 0, 0
    18, 0.000112598, 0.0433862, 0, 0
    19, 0.000151931, 0.035579, 0, 0
    20, 0.000106676, 0.0380221, 0, 0
    21, 0.000142064, 0.031513, 0, 0
    22, 0.000101426, 0.033622, 0, 0
    23, 0.000133183, 0.0281278, 0, 0
    24, 9.65761e-05, 0.029944, 0, 0
    25, 0.000124963, 0.0252622, 0, 0
    26, 9.18705e-05, 0.0268268, 0, 0
    27, 0.00011713, 0.0228095, 0, 0
    28, 8.71885e-05, 0.0241596, 0, 0
    29, 0.000109678, 0.0206951, 0, 0
    30, 8.26855e-05, 0.0218628, 0, 0
    31, 0.000102771, 0.01886, 0, 0
    32, 7.84563e-05, 0.0198699, 0, 0
    33, 9.64182e-05, 0.0172537, 0, 0
    34, 7.45033e-05, 0.0181268, 0, 0
    35, 9.05835e-05, 0.0158355, 0, 0
    36, 7.07734e-05, 0.0165888, 0, 0
    37, 8.51735e-05, 0.0145733, 0, 0
    38, 6.72334e-05, 0.0152224, 0, 0
    39, 8.01143e-05, 0.0134431, 0, 0
    40, 6.38501e-05, 0.0140017, 0, 0
    41, 7.53459e-05, 0.0124266, 0, 0
    42, 6.06069e-05, 0.0129073, 0, 0
    43, 7.08538e-05, 0.0115093, 0, 0
    44, 5.75014e-05, 0.0119224, 0, 0
    45, 6.6637e-05, 0.0106791, 0, 0
    46, 5.4555e-05, 0.0110339, 0, 0
    47, 6.27114e-05, 0.00992795, 0, 0
    48, 5.18081e-05, 0.0102315, 0, 0
    49, 5.90497e-05, 0.00923856, 0, 0
    50, 4.9149e-05, 0.00949692, 0, 0
    51, 5.5643e-05, 0.00860969, 0, 0
    52, 4.66428e-05, 0.00883117, 0, 0
    53, 5.24485e-05, 0.00803622, 0, 0
    54, 4.43154e-05, 0.00822283, 0, 0
    55, 4.9449e-05, 0.00750577, 0, 0
    56, 4.20356e-05, 0.00766414, 0, 0
    57, 4.6627e-05, 0.00701972, 0, 0
    58, 3.99127e-05, 0.00715088, 0, 0
    59, 4.39699e-05, 0.00657142, 0, 0
    60, 3.78766e-05, 0.00667914, 0, 0
    61, 4.14726e-05, 0.0061556, 0, 0
    62, 3.59416e-05, 0.0062444, 0, 0
    63, 3.91306e-05, 0.00577082, 0, 0
    64, 3.41033e-05, 0.00584269, 0, 0
    65, 3.69315e-05, 0.00541414, 0, 0
    66, 3.23645e-05, 0.00547135, 0, 0
    67, 3.48676e-05, 0.00508287, 0, 0
    68, 3.07133e-05, 0.00512747, 0, 0
    69, 3.29257e-05, 0.00477499, 0, 0
    70, 2.91467e-05, 0.00480862, 0, 0
    71, 3.11002e-05, 0.00448859, 0, 0
    72, 2.76595e-05, 0.00451243, 0, 0
    73, 2.93789e-05, 0.00422144, 0, 0
    74, 2.62473e-05, 0.004237, 0, 0
    75, 2.77585e-05, 0.00397215, 0, 0
    76, 2.49057e-05, 0.00398055, 0, 0
    77, 2.62304e-05, 0.0037393, 0, 0
    78, 2.36329e-05, 0.00374158, 0, 0
    79, 2.47917e-05, 0.00352164, 0, 0
    80, 2.24254e-05, 0.00351869, 0, 0
    81, 2.34354e-05, 0.00331806, 0, 0
    82, 2.12801e-05, 0.0033106, 0, 0
    83, 2.21576e-05, 0.00312743, 0, 0
    84, 2.01935e-05, 0.00311616, 0, 0
    85, 2.09521e-05, 0.00294885, 0, 0
    86, 1.91623e-05, 0.00293429, 0, 0
    87, 1.98148e-05, 0.00278136, 0, 0
    88, 1.81835e-05, 0.00276408, 0, 0
    89, 1.87411e-05, 0.00262416, 0, 0
    90, 1.72548e-05, 0.00260463, 0, 0
    91, 1.77375e-05, 0.00247665, 0, 0
    92, 1.63732e-05, 0.00245527, 0, 0
    93, 1.679e-05, 0.00233806, 0, 0
    94, 1.55368e-05, 0.00231529, 0, 0
    95, 1.58957e-05, 0.00220773, 0, 0
    96, 1.47435e-05, 0.00218401, 0, 0
    97, 1.50491e-05, 0.00208528, 0, 0
    98, 1.39908e-05, 0.0020607, 0, 0
    99, 1.42501e-05, 0.00196998, 0, 0
    100, 1.32868e-05, 0.00194488, 0, 0
    101, 1.34944e-05, 0.00186151, 0, 0
    102, 1.26187e-05, 0.00183597, 0, 0
    103, 1.27795e-05, 0.00175938, 0, 0
    104, 1.19825e-05, 0.00173358, 0, 0
    105, 1.20971e-05, 0.00166293, 0, 0
    106, 1.13881e-05, 0.00163753, 0, 0
    107, 1.14679e-05, 0.00157241, 0, 0
    108, 1.08071e-05, 0.00154687, 0, 0
    109, 1.08593e-05, 0.00148684, 0, 0
    110, 1.02603e-05, 0.00146145, 0, 0
    111, 1.02838e-05, 0.00140608, 0, 0
    112, 9.75132e-06, 0.00138125, 0, 0
    113, 9.75359e-06, 0.00133011, 0, 0
    114, 9.25657e-06, 0.00130538, 0, 0
    115, 9.23402e-06, 0.00125813, 0, 0
    116, 8.79333e-06, 0.00123416, 0, 0
    117, 8.75493e-06, 0.00119034, 0, 0
    118, 8.34977e-06, 0.001167, 0, 0
    119, 8.30096e-06, 0.00112648, 0, 0
    120, 7.92264e-06, 0.00110351, 0, 0
    121, 7.86552e-06, 0.00106583, 0, 0
    122, 7.52406e-06, 0.00104391, 0, 0
    123, 7.46083e-06, 0.00100867, 0, 0
    124, 7.14223e-06, 0.000988463, 0, 0
    125, 7.05051e-06, 0.000953788, 0, 0
    126, 6.76028e-06, 0.000934426, 0, 0
    127, 6.68899e-06, 0.000903264, 0, 0
    128, 6.41535e-06, 0.00088448, 0, 0
    129, 6.3481e-06, 0.000855018, 0, 0
    130, 6.09157e-06, 0.000837173, 0, 0
    131, 6.02729e-06, 0.000809375, 0, 0
    132, 5.78449e-06, 0.000793153, 0, 0
    133, 5.70256e-06, 0.000766409, 0, 0
    134, 5.45919e-06, 0.000750255, 0, 0
    135, 5.38776e-06, 0.000724731, 0, 0
    136, 5.1718e-06, 0.000710689, 0, 0
    137, 5.10061e-06, 0.000686977, 0, 0
    138, 4.88942e-06, 0.00067269, 0, 0
    139, 4.82855e-06, 0.000649884, 0, 0
    140, 4.64018e-06, 0.000637329, 0, 0
    141, 4.58172e-06, 0.00061611, 0, 0
    142, 4.39493e-06, 0.000603315, 0, 0
    143, 4.34413e-06, 0.00058285, 0, 0
    144, 4.17015e-06, 0.000571568, 0, 0
    145, 4.12181e-06, 0.000552065, 0, 0
    146, 3.95861e-06, 0.00054144, 0, 0
    147, 3.90892e-06, 0.000523326, 0, 0
    148, 3.7483e-06, 0.000512515, 0, 0
    149, 3.70466e-06, 0.000495185, 0, 0
    150, 3.55715e-06, 0.000485678, 0, 0
    151, 3.5153e-06, 0.000469588, 0, 0
    152, 3.37203e-06, 0.000459891, 0, 0
    153, 3.33268e-06, 0.00044437, 0, 0
    154, 3.20222e-06, 0.000435852, 0, 0
    155, 3.16283e-06, 0.00042144, 0, 0
    156, 3.03923e-06, 0.000412693, 0, 0
    157, 3.00382e-06, 0.000398588, 0, 0
    158, 2.89052e-06, 0.000391048, 0, 0
    159, 2.85703e-06, 0.000378111, 0, 0
    160, 2.74537e-06, 0.000370049, 0, 0
    161, 2.7191e-06, 0.000358466, 0, 0
    162, 2.60858e-06, 0.000350907, 0, 0
    163, 2.58091e-06, 0.000339193, 0, 0
    164, 2.4811e-06, 0.000332664, 0, 0
    165, 2.45176e-06, 0.00032142, 0, 0
    166, 2.359e-06, 0.000315322, 0, 0
    167, 2.32891e-06, 0.000304571, 0, 0
    168, 2.24111e-06, 0.000298831, 0, 0
    169, 2.21119e-06, 0.000288617, 0, 0
    170, 2.12754e-06, 0.000283197, 0, 0
    171, 2.09811e-06, 0.000273764, 0, 0
    172, 2.01443e-06, 0.000267964, 0, 0
    173, 1.99243e-06, 0.000259621, 0, 0
    174, 1.91023e-06, 0.000254167, 0, 0
    175, 1.88829e-06, 0.000245736, 0, 0
    176, 1.81475e-06, 0.000241032, 0, 0
    177, 1.79224e-06, 0.000233126, 0, 0
    178, 1.7208e-06, 0.000228372, 0, 0
    179, 1.7003e-06, 0.000220744, 0, 0
    180, 1.63531e-06, 0.000216569, 0, 0
    181, 1.61465e-06, 0.000209445, 0, 0
    182, 1.5509e-06, 0.000205187, 0, 0
    183, 1.53231e-06, 0.000198332, 0, 0
    184, 1.47402e-06, 0.000194592, 0, 0
    185, 1.45545e-06, 0.000188191, 0, 0
    186, 1.39843e-06, 0.00018438, 0, 0
    187, 1.3816e-06, 0.000178221, 0, 0
    188, 1.32926e-06, 0.000174864, 0, 0
    189, 1.31256e-06, 0.000169113, 0, 0
    190, 1.26139e-06, 0.000165696, 0, 0
    191, 1.24609e-06, 0.000160167, 0, 0
    192, 1.19899e-06, 0.00015715, 0, 0
    193, 1.18393e-06, 0.000151991, 0, 0
    194, 1.13764e-06, 0.000148909, 0, 0
    195, 1.12421e-06, 0.000144079, 0, 0
    196, 1.07989e-06, 0.000141154, 0, 0
    197, 1.0677e-06, 0.000136607, 0, 0
    198, 1.02552e-06, 0.000133826, 0, 0
    199, 1.01416e-06, 0.000129414, 0, 0
    200, 9.75665e-07, 0.000126968, 0, 0
    201, 9.63866e-07, 0.000122806, 0, 0
    202, 9.2677e-07, 0.000120327, 0, 0
    203, 9.15929e-07, 0.000116426, 0, 0
    204, 8.80162e-07, 0.000114065, 0, 0
    205, 8.70243e-07, 0.000110393, 0, 0
    206, 8.36127e-07, 0.000108148, 0, 0
    207, 8.26809e-07, 0.00010459, 0, 0
    208, 7.95501e-07, 0.000102613, 0, 0
    209, 7.85921e-07, 9.92537e-05, 0, 0
    210, 7.55934e-07, 9.72561e-05, 0, 0
    211, 7.47138e-07, 9.41086e-05, 0, 0
    212, 7.18238e-07, 9.22046e-05, 0, 0
    213, 7.10149e-07, 8.92373e-05, 0, 0
    214, 6.82607e-07, 8.74303e-05, 0, 0
    215, 6.74964e-07, 8.46194e-05, 0, 0
    216, 6.48882e-07, 8.28471e-05, 0, 0
    217, 6.42315e-07, 8.03021e-05, 0, 0
    218, 6.17085e-07, 7.86231e-05, 0, 0
    219, 6.10714e-07, 7.61095e-05, 0, 0
    220, 5.86878e-07, 7.4554e-05, 0, 0
    221, 5.80566e-07, 7.21135e-05, 0, 0
    222, 5.58663e-07, 7.07483e-05, 0, 0
    223, 5.51928e-07, 6.84346e-05, 0, 0
    224, 5.3102e-07, 6.70581e-05, 0, 0
    225, 5.24814e-07, 6.48935e-05, 0, 0
    226, 5.04764e-07, 6.35877e-05, 0, 0
    227, 4.99078e-07, 6.15068e-05, 0, 0
    228, 4.80486e-07, 6.03462e-05, 0, 0
    229, 4.74708e-07, 5.83741e-05, 0, 0
    230, 4.56986e-07, 5.72035e-05, 0, 0
    231, 4.51687e-07, 5.53591e-05, 0, 0
    232, 4.34648e-07, 5.42464e-05, 0, 0
    233, 4.29753e-07, 5.24757e-05, 0, 0
    234, 4.1387e-07, 5.14815e-05, 0, 0
    235, 4.08899e-07, 4.98017e-05, 0, 0
    236, 3.93691e-07, 4.88023e-05, 0, 0
    237, 3.89103e-07, 4.72043e-05, 0, 0
    238, 3.74847e-07, 4.63142e-05, 0, 0
    239, 3.70324e-07, 4.48025e-05, 0, 0
    240, 3.56631e-07, 4.39051e-05, 0, 0
    241, 3.52437e-07, 4.24694e-05, 0, 0
    242, 3.396e-07, 4.16667e-05, 0, 0
    243, 3.35489e-07, 4.03071e-05, 0, 0
    244, 3.23136e-07, 3.95013e-05, 0, 0
    245, 3.1934e-07, 3.82133e-05, 0, 0
    246, 3.07793e-07, 3.74895e-05, 0, 0
    247, 3.04122e-07, 3.6269e-05, 0, 0
    248, 2.92997e-07, 3.55439e-05, 0, 0
    249, 2.89481e-07, 3.43683e-05, 0, 0
    250, 2.79109e-07, 3.37277e-05, 0, 0
    251, 2.75863e-07, 3.26117e-05, 0, 0
    252, 2.66083e-07, 3.19883e-05, 0, 0
    253, 2.62873e-07, 3.09327e-05, 0, 0
    254, 2.53687e-07, 3.03488e-05, 0, 0
    255, 2.50571e-07, 2.93487e-05, 0, 0
    256, 2.41821e-07, 2.87921e-05, 0, 0
    257, 2.38757e-07, 2.78431e-05, 0, 0
    258, 2.30405e-07, 2.73131e-05, 0, 0
    259, 2.27458e-07, 2.64152e-05, 0, 0
    260, 2.19518e-07, 2.59127e-05, 0, 0
    261, 2.1669e-07, 2.50634e-05, 0, 0
    262, 2.09139e-07, 2.45859e-05, 0, 0
    263, 2.06458e-07, 2.37815e-05, 0, 0
    264, 1.99287e-07, 2.33267e-05, 0, 0
    265, 1.9674e-07, 2.25648e-05, 0, 0
    266, 1.89934e-07, 2.21319e-05, 0, 0
    267, 1.87523e-07, 2.14104e-05, 0, 0
    268, 1.81062e-07, 2.0999e-05, 0, 0
    269, 1.7879e-07, 2.03163e-05, 0, 0
    270, 1.72663e-07, 1.99253e-05, 0, 0
    271, 1.70511e-07, 1.92789e-05, 0, 0
    272, 1.64689e-07, 1.89072e-05, 0, 0
    273, 1.62654e-07, 1.82952e-05, 0, 0
    274, 1.57122e-07, 1.79416e-05, 0, 0
    275, 1.55172e-07, 1.73618e-05, 0, 0
    276, 1.49901e-07, 1.70256e-05, 0, 0
    277, 1.47996e-07, 1.64662e-05, 0, 0
    278, 1.42994e-07, 1.61481e-05, 0, 0
    279, 1.41261e-07, 1.56281e-05, 0, 0
    280, 1.36448e-07, 1.53277e-05, 0, 0
    281, 1.34787e-07, 1.48372e-05, 0, 0
    282, 1.30198e-07, 1.45484e-05, 0, 0
    283, 1.28566e-07, 1.40815e-05, 0, 0
    284, 1.24208e-07, 1.38055e-05, 0, 0
    285, 1.22699e-07, 1.33642e-05, 0, 0
    286, 1.18582e-07, 1.3106e-05, 0, 0
    287, 1.17328e-07, 1.26867e-05, 0, 0
    288, 1.13212e-07, 1.24318e-05, 0, 0
    289, 1.11826e-07, 1.20407e-05, 0, 0
    290, 1.08103e-07, 1.1804e-05, 0, 0
    291, 1.06826e-07, 1.1431e-05, 0, 0
    292, 1.03309e-07, 1.12055e-05, 0, 0
    293, 1.02094e-07, 1.08508e-05, 0, 0
    The solver residual has converged
    294, 9.87614e-08, 1.06368e-05, 0, 0

Max sigmaEq (von Mises stress) = 1.37024e+08
ExecutionTime = 3.44 s  ClockTime = 3 s

Time = 70

Evolving solid solver
Solving the total Lagrangian form of the momentum equation for D
    Corr, res, relRes, matRes, iters
    1, 0.000229926, 0.453389, 0, 0
    2, 0.000147787, 0.349933, 0, 0
    3, 0.000220353, 0.223477, 0, 0
    4, 0.000139392, 0.205659, 0, 0
    5, 0.000205893, 0.144992, 0, 0
    6, 0.000134802, 0.142568, 0, 0
    7, 0.000191261, 0.105983, 0, 0
    8, 0.000125126, 0.107584, 0, 0
    9, 0.000177348, 0.0825485, 0, 0
    10, 0.000118445, 0.0853326, 0, 0
    11, 0.000166328, 0.0670865, 0, 0
    12, 0.000114125, 0.0700231, 0, 0
    13, 0.000156436, 0.0561872, 0, 0
    14, 0.000109506, 0.0589887, 0, 0
    15, 0.000146644, 0.0480151, 0, 0
    16, 0.000104193, 0.0505709, 0, 0
    17, 0.000137058, 0.0416977, 0, 0
    18, 9.88078e-05, 0.0439557, 0, 0
    19, 0.000128492, 0.0366474, 0, 0
    20, 9.39852e-05, 0.0386236, 0, 0
    21, 0.000120862, 0.0325182, 0, 0
    22, 8.97532e-05, 0.0342376, 0, 0
    23, 0.000114001, 0.0290869, 0, 0
    24, 8.58654e-05, 0.030571, 0, 0
    25, 0.000107501, 0.0261595, 0, 0
    26, 8.18336e-05, 0.0274429, 0, 0
    27, 0.000101158, 0.0236705, 0, 0
    28, 7.79115e-05, 0.0247826, 0, 0
    29, 9.5102e-05, 0.0215232, 0, 0
    30, 7.41276e-05, 0.0224863, 0, 0
    31, 8.9527e-05, 0.0196559, 0, 0
    32, 7.05765e-05, 0.0204923, 0, 0
    33, 8.44206e-05, 0.018019, 0, 0
    34, 6.72434e-05, 0.0187447, 0, 0
    35, 7.9703e-05, 0.0165719, 0, 0
    36, 6.40865e-05, 0.0171988, 0, 0
    37, 7.52926e-05, 0.0152813, 0, 0
    38, 6.10652e-05, 0.0158221, 0, 0
    39, 7.11268e-05, 0.0141254, 0, 0
    40, 5.81649e-05, 0.0145908, 0, 0
    41, 6.71723e-05, 0.0130862, 0, 0
    42, 5.5377e-05, 0.0134855, 0, 0
    43, 6.34323e-05, 0.0121472, 0, 0
    44, 5.27124e-05, 0.0124902, 0, 0
    45, 5.99232e-05, 0.0112965, 0, 0
    46, 5.01785e-05, 0.0115907, 0, 0
    47, 5.6643e-05, 0.0105242, 0, 0
    48, 4.77805e-05, 0.0107747, 0, 0
    49, 5.35751e-05, 0.00981932, 0, 0
    50, 4.55048e-05, 0.0100314, 0, 0
    51, 5.0696e-05, 0.00917356, 0, 0
    52, 4.33393e-05, 0.00935257, 0, 0
    53, 4.79881e-05, 0.00858145, 0, 0
    54, 4.12748e-05, 0.00873099, 0, 0
    55, 4.54339e-05, 0.00803592, 0, 0
    56, 3.92982e-05, 0.00816026, 0, 0
    57, 4.30178e-05, 0.00753373, 0, 0
    58, 3.7409e-05, 0.00763567, 0, 0
    59, 4.07345e-05, 0.00706908, 0, 0
    60, 3.56092e-05, 0.00715219, 0, 0
    61, 3.85865e-05, 0.00663919, 0, 0
    62, 3.38991e-05, 0.0067056, 0, 0
    63, 3.6562e-05, 0.00624041, 0, 0
    64, 3.22749e-05, 0.00629261, 0, 0
    65, 3.46613e-05, 0.00587047, 0, 0
    66, 3.07319e-05, 0.00590978, 0, 0
    67, 3.28627e-05, 0.00552607, 0, 0
    68, 2.92613e-05, 0.00555457, 0, 0
    69, 3.11642e-05, 0.00520565, 0, 0
    70, 2.786e-05, 0.00522426, 0, 0
    71, 2.95553e-05, 0.00490657, 0, 0
    72, 2.65274e-05, 0.00491686, 0, 0
    73, 2.80318e-05, 0.00462731, 0, 0
    74, 2.52693e-05, 0.00463034, 0, 0
    75, 2.65922e-05, 0.0043663, 0, 0
    76, 2.40674e-05, 0.00436303, 0, 0
    77, 2.52311e-05, 0.00412204, 0, 0
    78, 2.29271e-05, 0.0041134, 0, 0
    79, 2.39444e-05, 0.00389325, 0, 0
    80, 2.18435e-05, 0.00387999, 0, 0
    81, 2.27284e-05, 0.00367883, 0, 0
    82, 2.08082e-05, 0.00366155, 0, 0
    83, 2.15755e-05, 0.0034776, 0, 0
    84, 1.98235e-05, 0.00345696, 0, 0
    85, 2.04837e-05, 0.00328866, 0, 0
    86, 1.88847e-05, 0.00326514, 0, 0
    87, 1.94487e-05, 0.00311113, 0, 0
    88, 1.79904e-05, 0.00308516, 0, 0
    89, 1.84681e-05, 0.00294414, 0, 0
    90, 1.71394e-05, 0.00291617, 0, 0
    91, 1.7539e-05, 0.00278701, 0, 0
    92, 1.63295e-05, 0.0027575, 0, 0
    93, 1.6659e-05, 0.00263907, 0, 0
    94, 1.55569e-05, 0.0026084, 0, 0
    95, 1.58242e-05, 0.00249969, 0, 0
    96, 1.48228e-05, 0.00246808, 0, 0
    97, 1.50333e-05, 0.00236827, 0, 0
    98, 1.41224e-05, 0.00233604, 0, 0
    99, 1.42828e-05, 0.00224428, 0, 0
    100, 1.34557e-05, 0.00221168, 0, 0
    101, 1.35623e-05, 0.00212699, 0, 0
    102, 1.28303e-05, 0.00209489, 0, 0
    103, 1.28991e-05, 0.0020168, 0, 0
    104, 1.22141e-05, 0.0019843, 0, 0
    105, 1.22466e-05, 0.0019121, 0, 0
    106, 1.16411e-05, 0.00188039, 0, 0
    107, 1.16514e-05, 0.00181367, 0, 0
    108, 1.10831e-05, 0.00178195, 0, 0
    109, 1.10672e-05, 0.00172001, 0, 0
    110, 1.05624e-05, 0.00168939, 0, 0
    111, 1.0528e-05, 0.00163167, 0, 0
    112, 1.00601e-05, 0.0016019, 0, 0
    113, 1.00166e-05, 0.00154818, 0, 0
    114, 9.57282e-06, 0.00151928, 0, 0
    115, 9.52162e-06, 0.00146879, 0, 0
    116, 9.11849e-06, 0.00144137, 0, 0
    117, 9.06259e-06, 0.00139383, 0, 0
    118, 8.68258e-06, 0.00136764, 0, 0
    119, 8.62785e-06, 0.00132293, 0, 0
    120, 8.2599e-06, 0.00129787, 0, 0
    121, 8.20538e-06, 0.00125555, 0, 0
    122, 7.8678e-06, 0.00123199, 0, 0
    123, 7.81329e-06, 0.00119189, 0, 0
    124, 7.49099e-06, 0.00116955, 0, 0
    125, 7.43942e-06, 0.00113169, 0, 0
    126, 7.12677e-06, 0.00111034, 0, 0
    127, 7.07718e-06, 0.00107443, 0, 0
    128, 6.78798e-06, 0.00105441, 0, 0
    129, 6.73934e-06, 0.00102034, 0, 0
    130, 6.46311e-06, 0.00100134, 0, 0
    131, 6.41864e-06, 0.000969084, 0, 0
    132, 6.14987e-06, 0.000950976, 0, 0
    133, 6.10665e-06, 0.00092041, 0, 0
    134, 5.85788e-06, 0.000903374, 0, 0
    135, 5.81631e-06, 0.000874297, 0, 0
    136, 5.5785e-06, 0.000858124, 0, 0
    137, 5.53975e-06, 0.000830706, 0, 0
    138, 5.30744e-06, 0.000815214, 0, 0
    139, 5.27092e-06, 0.000789127, 0, 0
    140, 5.05623e-06, 0.000774606, 0, 0
    141, 5.02035e-06, 0.000749858, 0, 0
    142, 4.8156e-06, 0.000736019, 0, 0
    143, 4.78242e-06, 0.000712582, 0, 0
    144, 4.58283e-06, 0.000699415, 0, 0
    145, 4.55079e-06, 0.000677109, 0, 0
    146, 4.36632e-06, 0.000664753, 0, 0
    147, 4.33519e-06, 0.000643531, 0, 0
    148, 4.15831e-06, 0.000631767, 0, 0
    149, 4.12963e-06, 0.000611673, 0, 0
    150, 3.9578e-06, 0.000600454, 0, 0
    151, 3.93005e-06, 0.000581377, 0, 0
    152, 3.77107e-06, 0.000570807, 0, 0
    153, 3.74402e-06, 0.000552641, 0, 0
    154, 3.59214e-06, 0.000542609, 0, 0
    155, 3.5671e-06, 0.00052539, 0, 0
    156, 3.41928e-06, 0.000515821, 0, 0
    157, 3.39517e-06, 0.000499426, 0, 0
    158, 3.25838e-06, 0.000490437, 0, 0
    159, 3.23482e-06, 0.000474838, 0, 0
    160, 3.10412e-06, 0.000466272, 0, 0
    161, 3.08213e-06, 0.000451506, 0, 0
    162, 2.95482e-06, 0.000443307, 0, 0
    163, 2.93388e-06, 0.000429279, 0, 0
    164, 2.81575e-06, 0.000421565, 0, 0
    165, 2.79569e-06, 0.000408195, 0, 0
    166, 2.68283e-06, 0.000400847, 0, 0
    167, 2.66403e-06, 0.000388204, 0, 0
    168, 2.55403e-06, 0.00038117, 0, 0
    169, 2.53636e-06, 0.000369119, 0, 0
    170, 2.4344e-06, 0.000362501, 0, 0
    171, 2.41698e-06, 0.000351067, 0, 0
    172, 2.31952e-06, 0.00034474, 0, 0
    173, 2.30333e-06, 0.000333888, 0, 0
    174, 2.20834e-06, 0.00032787, 0, 0
    175, 2.1929e-06, 0.000317511, 0, 0
    176, 2.1052e-06, 0.000311853, 0, 0
    177, 2.08988e-06, 0.000302012, 0, 0
    178, 2.00588e-06, 0.000296603, 0, 0
    179, 1.99188e-06, 0.000287265, 0, 0
    180, 1.91018e-06, 0.000282109, 0, 0
    181, 1.89665e-06, 0.000273226, 0, 0
    182, 1.8206e-06, 0.000268353, 0, 0
    183, 1.80768e-06, 0.000259893, 0, 0
    184, 1.73527e-06, 0.000255248, 0, 0
    185, 1.72326e-06, 0.000247248, 0, 0
    186, 1.654e-06, 0.000242755, 0, 0
    187, 1.64221e-06, 0.000235015, 0, 0
    188, 1.57672e-06, 0.000230931, 0, 0
    189, 1.56754e-06, 0.000223714, 0, 0
    190, 1.50441e-06, 0.000219623, 0, 0
    191, 1.49432e-06, 0.000212731, 0, 0
    192, 1.43512e-06, 0.000208946, 0, 0
    193, 1.42497e-06, 0.000202389, 0, 0
    194, 1.36875e-06, 0.000198798, 0, 0
[...]
    200, 1.71443e-06, 0.000300551, 0, 0
    201, 1.71712e-06, 0.000291587, 0, 0
    202, 1.64377e-06, 0.000287881, 0, 0
    203, 1.64655e-06, 0.000279292, 0, 0
    204, 1.57637e-06, 0.000275754, 0, 0
    205, 1.57883e-06, 0.00026755, 0, 0
    206, 1.51137e-06, 0.000264132, 0, 0
    207, 1.51406e-06, 0.000256287, 0, 0
    208, 1.44942e-06, 0.000253024, 0, 0
    209, 1.45198e-06, 0.000245501, 0, 0
    210, 1.39014e-06, 0.000242397, 0, 0
    211, 1.3924e-06, 0.000235177, 0, 0
    212, 1.3332e-06, 0.000232209, 0, 0
    213, 1.33532e-06, 0.0002253, 0, 0
    214, 1.27845e-06, 0.000222457, 0, 0
    215, 1.2806e-06, 0.000215838, 0, 0
    216, 1.22621e-06, 0.00021311, 0, 0
    217, 1.22817e-06, 0.000206784, 0, 0
    218, 1.17589e-06, 0.000204174, 0, 0
    219, 1.17774e-06, 0.000198102, 0, 0
    220, 1.12768e-06, 0.000195603, 0, 0
    221, 1.12948e-06, 0.000189792, 0, 0
    222, 1.08148e-06, 0.000187404, 0, 0
    223, 1.08322e-06, 0.000181836, 0, 0
    224, 1.03723e-06, 0.000179542, 0, 0
    225, 1.03898e-06, 0.000174215, 0, 0
    226, 9.94929e-07, 0.000172023, 0, 0
    227, 9.96478e-07, 0.000166927, 0, 0
    228, 9.54168e-07, 0.000164821, 0, 0
    229, 9.5573e-07, 0.000159932, 0, 0
    230, 9.15184e-07, 0.000157916, 0, 0
    231, 9.16721e-07, 0.000153236, 0, 0
    232, 8.77928e-07, 0.000151309, 0, 0
    233, 8.79295e-07, 0.000146827, 0, 0
    234, 8.42066e-07, 0.000144981, 0, 0
    235, 8.43339e-07, 0.000140683, 0, 0
    236, 8.07639e-07, 0.000138918, 0, 0
    237, 8.09102e-07, 0.000134759, 0, 0
    238, 7.74868e-07, 0.000133073, 0, 0
    239, 7.77667e-07, 0.000129176, 0, 0
    240, 7.43032e-07, 0.000127491, 0, 0
    241, 7.45552e-07, 0.000123765, 0, 0
    242, 7.14188e-07, 0.000122164, 0, 0
    243, 7.15613e-07, 0.000118543, 0, 0
    244, 6.86077e-07, 0.000117074, 0, 0
    245, 6.87162e-07, 0.000113606, 0, 0
    246, 6.58222e-07, 0.00011218, 0, 0
    247, 6.58822e-07, 0.000108839, 0, 0
    248, 6.32076e-07, 0.000107508, 0, 0
    249, 6.32608e-07, 0.000104307, 0, 0
    250, 6.05956e-07, 0.000103005, 0, 0
    251, 6.06577e-07, 9.99549e-05, 0, 0
    252, 5.81132e-07, 9.87089e-05, 0, 0
    253, 5.81806e-07, 9.5788e-05, 0, 0
    254, 5.57388e-07, 9.4594e-05, 0, 0
    255, 5.57921e-07, 9.1798e-05, 0, 0
    256, 5.34448e-07, 9.06479e-05, 0, 0
    257, 5.35043e-07, 8.79707e-05, 0, 0
    258, 5.12564e-07, 8.68708e-05, 0, 0
    259, 5.1314e-07, 8.4309e-05, 0, 0
    260, 4.91588e-07, 8.32541e-05, 0, 0
    261, 4.92172e-07, 8.07985e-05, 0, 0
    262, 4.71568e-07, 7.97896e-05, 0, 0
    263, 4.7208e-07, 7.74373e-05, 0, 0
    264, 4.52267e-07, 7.64638e-05, 0, 0
    265, 4.52824e-07, 7.42083e-05, 0, 0
    266, 4.33851e-07, 7.32796e-05, 0, 0
    267, 4.34325e-07, 7.11198e-05, 0, 0
    268, 4.1612e-07, 7.02299e-05, 0, 0
    269, 4.16542e-07, 6.81504e-05, 0, 0
    270, 3.99155e-07, 6.73057e-05, 0, 0
    271, 3.99536e-07, 6.53144e-05, 0, 0
    272, 3.82881e-07, 6.45036e-05, 0, 0
    273, 3.83254e-07, 6.25987e-05, 0, 0
    274, 3.67259e-07, 6.18179e-05, 0, 0
    275, 3.67664e-07, 5.9995e-05, 0, 0
    276, 3.5232e-07, 5.92454e-05, 0, 0
    277, 3.52701e-07, 5.75006e-05, 0, 0
    278, 3.37961e-07, 5.67799e-05, 0, 0
    279, 3.38343e-07, 5.51062e-05, 0, 0
    280, 3.24254e-07, 5.44189e-05, 0, 0
    281, 3.24584e-07, 5.28144e-05, 0, 0
    282, 3.11077e-07, 5.21576e-05, 0, 0
    283, 3.11384e-07, 5.06158e-05, 0, 0
    284, 2.98451e-07, 4.99877e-05, 0, 0
    285, 2.98738e-07, 4.85117e-05, 0, 0
    286, 2.86344e-07, 4.79099e-05, 0, 0
    287, 2.86623e-07, 4.64958e-05, 0, 0
    288, 2.74738e-07, 4.59187e-05, 0, 0
    289, 2.74997e-07, 4.45636e-05, 0, 0
    290, 2.63601e-07, 4.40073e-05, 0, 0
    291, 2.63876e-07, 4.27124e-05, 0, 0
    292, 2.5293e-07, 4.21786e-05, 0, 0
    293, 2.53198e-07, 4.09381e-05, 0, 0
    294, 2.42691e-07, 4.04255e-05, 0, 0
    295, 2.42955e-07, 3.92369e-05, 0, 0
    296, 2.32906e-07, 3.87473e-05, 0, 0
    297, 2.33134e-07, 3.76074e-05, 0, 0
    298, 2.23498e-07, 3.71385e-05, 0, 0
    299, 2.23692e-07, 3.60434e-05, 0, 0
    300, 2.14471e-07, 3.55959e-05, 0, 0
    301, 2.14664e-07, 3.45477e-05, 0, 0
    302, 2.05809e-07, 3.41185e-05, 0, 0
    303, 2.05987e-07, 3.31124e-05, 0, 0
    304, 1.97503e-07, 3.26997e-05, 0, 0
    305, 1.97689e-07, 3.17383e-05, 0, 0
    306, 1.89543e-07, 3.13425e-05, 0, 0
    307, 1.89718e-07, 3.04211e-05, 0, 0
    308, 1.81907e-07, 3.00418e-05, 0, 0
    309, 1.82073e-07, 2.91588e-05, 0, 0
    310, 1.74588e-07, 2.87955e-05, 0, 0
    311, 1.74733e-07, 2.79482e-05, 0, 0
    312, 1.67565e-07, 2.76007e-05, 0, 0
    313, 1.67695e-07, 2.67876e-05, 0, 0
    314, 1.60832e-07, 2.64551e-05, 0, 0
    315, 1.60961e-07, 2.56772e-05, 0, 0
    316, 1.54367e-07, 2.53587e-05, 0, 0
    317, 1.54475e-07, 2.46107e-05, 0, 0
    318, 1.48171e-07, 2.43058e-05, 0, 0
    319, 1.48281e-07, 2.35913e-05, 0, 0
    320, 1.42206e-07, 2.32967e-05, 0, 0
    321, 1.42337e-07, 2.26137e-05, 0, 0
    322, 1.36502e-07, 2.23303e-05, 0, 0
    323, 1.36629e-07, 2.1675e-05, 0, 0
    324, 1.31053e-07, 2.14052e-05, 0, 0
    325, 1.31157e-07, 2.07765e-05, 0, 0
    326, 1.25814e-07, 2.05183e-05, 0, 0
    327, 1.25903e-07, 1.99156e-05, 0, 0
    328, 1.20772e-07, 1.96679e-05, 0, 0
    329, 1.20863e-07, 1.90895e-05, 0, 0
    330, 1.15951e-07, 1.88529e-05, 0, 0
    331, 1.16024e-07, 1.82991e-05, 0, 0
    332, 1.113e-07, 1.80703e-05, 0, 0
    333, 1.11394e-07, 1.75407e-05, 0, 0
    334, 1.0686e-07, 1.73217e-05, 0, 0
    335, 1.06939e-07, 1.68137e-05, 0, 0
    336, 1.02601e-07, 1.66043e-05, 0, 0
    337, 1.02671e-07, 1.61171e-05, 0, 0
    The solver residual has converged
    338, 9.85139e-08, 1.59168e-05, 0, 0

Max sigmaEq (von Mises stress) = 2.33568e+08
ExecutionTime = 5.29 s  ClockTime = 5 s

Time = 100

Evolving solid solver
Solving the total Lagrangian form of the momentum equation for D
    Corr, res, relRes, matRes, iters
    1, 0.00013462, 0.486163, 0, 0
    2, 0.000106977, 0.353456, 0, 0
    3, 0.000132408, 0.239098, 0, 0
    4, 0.000100903, 0.205593, 0, 0
    5, 0.000126998, 0.154059, 0, 0
    6, 9.79455e-05, 0.142627, 0, 0
    7, 0.000119346, 0.112547, 0, 0
    8, 9.15427e-05, 0.107861, 0, 0
    9, 0.00011188, 0.0876404, 0, 0
    10, 8.85965e-05, 0.0861177, 0, 0
    11, 0.000107715, 0.071489, 0, 0
    12, 8.53695e-05, 0.0712677, 0, 0
    13, 0.000102839, 0.0601365, 0, 0
    14, 8.20169e-05, 0.0605442, 0, 0
    15, 9.80255e-05, 0.0516648, 0, 0
    16, 7.84053e-05, 0.0522911, 0, 0
    17, 9.33671e-05, 0.0450231, 0, 0
    18, 7.52062e-05, 0.0457544, 0, 0
    19, 8.92251e-05, 0.039702, 0, 0
    20, 7.23542e-05, 0.0404705, 0, 0
    21, 8.54113e-05, 0.0353438, 0, 0
    22, 6.95881e-05, 0.0361018, 0, 0
    23, 8.16184e-05, 0.0317138, 0, 0
    24, 6.67593e-05, 0.0324419, 0, 0
    25, 7.77705e-05, 0.0286558, 0, 0
    26, 6.39173e-05, 0.0293506, 0, 0
    27, 7.41213e-05, 0.0260564, 0, 0
    28, 6.12546e-05, 0.0267134, 0, 0
    29, 7.07722e-05, 0.0238181, 0, 0
    30, 5.88088e-05, 0.0244341, 0, 0
    31, 6.77185e-05, 0.0218726, 0, 0
    32, 5.65268e-05, 0.0224381, 0, 0
    33, 6.48247e-05, 0.0201522, 0, 0
    34, 5.43127e-05, 0.0206717, 0, 0
    35, 6.20309e-05, 0.018627, 0, 0
    36, 5.21472e-05, 0.019102, 0, 0
    37, 5.92924e-05, 0.0172667, 0, 0
    38, 5.00345e-05, 0.0177028, 0, 0
    39, 5.66715e-05, 0.0160501, 0, 0
    40, 4.80116e-05, 0.0164507, 0, 0
    41, 5.41822e-05, 0.0149559, 0, 0
    42, 4.60836e-05, 0.0153238, 0, 0
    43, 5.18486e-05, 0.013969, 0, 0
    44, 4.42604e-05, 0.0143037, 0, 0
    45, 4.96322e-05, 0.0130687, 0, 0
    46, 4.25162e-05, 0.0133765, 0, 0
    47, 4.75329e-05, 0.0122513, 0, 0
    48, 4.08514e-05, 0.0125304, 0, 0
    49, 4.55092e-05, 0.0115004, 0, 0
    50, 3.92392e-05, 0.0117564, 0, 0
    51, 4.35761e-05, 0.0108133, 0, 0
    52, 3.76889e-05, 0.0110463, 0, 0
    53, 4.1717e-05, 0.0101807, 0, 0
    54, 3.61944e-05, 0.0103931, 0, 0
    55, 3.99507e-05, 0.00959692, 0, 0
    56, 3.47705e-05, 0.00979068, 0, 0
    57, 3.82654e-05, 0.00905704, 0, 0
    58, 3.34044e-05, 0.00923352, 0, 0
    59, 3.66672e-05, 0.00855727, 0, 0
    60, 3.21037e-05, 0.00871733, 0, 0
    61, 3.51347e-05, 0.00809231, 0, 0
    62, 3.085e-05, 0.00823817, 0, 0
    63, 3.36734e-05, 0.00766042, 0, 0
    64, 2.96504e-05, 0.00779233, 0, 0
    65, 3.22699e-05, 0.00725751, 0, 0
    66, 2.84917e-05, 0.00737691, 0, 0
    67, 3.09299e-05, 0.0068814, 0, 0
    68, 2.73834e-05, 0.00698923, 0, 0
    69, 2.96463e-05, 0.00652968, 0, 0
    70, 2.63173e-05, 0.00662677, 0, 0
    71, 2.84218e-05, 0.00620027, 0, 0
    72, 2.52984e-05, 0.00628751, 0, 0
    73, 2.72498e-05, 0.00589119, 0, 0
    74, 2.43177e-05, 0.00596943, 0, 0
    75, 2.61306e-05, 0.00560114, 0, 0
    76, 2.33779e-05, 0.00567101, 0, 0
    77, 2.50569e-05, 0.00532873, 0, 0
    78, 2.24742e-05, 0.00539061, 0, 0
    79, 2.40295e-05, 0.00507198, 0, 0
    80, 2.16077e-05, 0.00512687, 0, 0
    81, 2.30465e-05, 0.00483021, 0, 0
    82, 2.07742e-05, 0.00487848, 0, 0
    83, 2.21059e-05, 0.00460224, 0, 0
    84, 1.99756e-05, 0.00464436, 0, 0
    85, 2.12049e-05, 0.00438681, 0, 0
    86, 1.92074e-05, 0.0044235, 0, 0
    87, 2.03444e-05, 0.00418375, 0, 0
    88, 1.84702e-05, 0.00421494, 0, 0
    89, 1.95229e-05, 0.00399138, 0, 0
    90, 1.77625e-05, 0.00401784, 0, 0
    91, 1.87336e-05, 0.00380933, 0, 0
    92, 1.70812e-05, 0.00383141, 0, 0
    93, 1.79779e-05, 0.0036371, 0, 0
    94, 1.64277e-05, 0.00365497, 0, 0
    95, 1.72539e-05, 0.0034737, 0, 0
    96, 1.58e-05, 0.00348788, 0, 0
    97, 1.65593e-05, 0.00331876, 0, 0
    98, 1.51963e-05, 0.0033295, 0, 0
    99, 1.5894e-05, 0.00317166, 0, 0
    100, 1.46164e-05, 0.0031793, 0, 0
    101, 1.52549e-05, 0.00303206, 0, 0
    102, 1.40593e-05, 0.00303679, 0, 0
    103, 1.46433e-05, 0.00289957, 0, 0
    104, 1.35239e-05, 0.00290148, 0, 0
    105, 1.40582e-05, 0.00277337, 0, 0
    106, 1.30085e-05, 0.00277294, 0, 0
    107, 1.34965e-05, 0.00265356, 0, 0
    108, 1.25144e-05, 0.00265068, 0, 0
    109, 1.29568e-05, 0.00253939, 0, 0
    110, 1.20422e-05, 0.0025344, 0, 0
    111, 1.24378e-05, 0.0024308, 0, 0
    112, 1.15885e-05, 0.00242377, 0, 0
    113, 1.19408e-05, 0.00232729, 0, 0
    114, 1.11525e-05, 0.00231851, 0, 0
    115, 1.1463e-05, 0.00222876, 0, 0
    116, 1.07339e-05, 0.00221831, 0, 0
    117, 1.10062e-05, 0.00213495, 0, 0
    118, 1.03304e-05, 0.00212285, 0, 0
    119, 1.05684e-05, 0.00204525, 0, 0
    120, 9.94366e-06, 0.00203189, 0, 0
    121, 1.01476e-05, 0.00195968, 0, 0
    122, 9.57106e-06, 0.00194526, 0, 0
    123, 9.74492e-06, 0.00187794, 0, 0
    124, 9.21334e-06, 0.00186269, 0, 0
    125, 9.35807e-06, 0.0017999, 0, 0
    126, 8.86619e-06, 0.00178406, 0, 0
    127, 8.98682e-06, 0.00172525, 0, 0
    128, 8.53304e-06, 0.00170902, 0, 0
    129, 8.63275e-06, 0.00165388, 0, 0
    130, 8.21081e-06, 0.00163753, 0, 0
    131, 8.29393e-06, 0.00158561, 0, 0
    132, 7.89919e-06, 0.00156932, 0, 0
    133, 7.97016e-06, 0.00152031, 0, 0
    134, 7.59902e-06, 0.00150418, 0, 0
    135, 7.66108e-06, 0.00145774, 0, 0
    136, 7.31011e-06, 0.00144209, 0, 0
    137, 7.36452e-06, 0.00139785, 0, 0
    138, 7.03087e-06, 0.00138277, 0, 0
    139, 7.07959e-06, 0.00134055, 0, 0
    140, 6.76144e-06, 0.00132605, 0, 0
    141, 6.80686e-06, 0.00128572, 0, 0
    142, 6.50241e-06, 0.00127184, 0, 0
    143, 6.54437e-06, 0.00123332, 0, 0
    144, 6.25245e-06, 0.00121997, 0, 0
    145, 6.29309e-06, 0.00118312, 0, 0
    146, 6.01332e-06, 0.00117035, 0, 0
    147, 6.05166e-06, 0.00113494, 0, 0
    148, 5.79298e-06, 0.00112318, 0, 0
    149, 5.81679e-06, 0.00108849, 0, 0
    150, 5.57943e-06, 0.00107792, 0, 0
    151, 5.59508e-06, 0.00104449, 0, 0
    152, 5.36907e-06, 0.00103415, 0, 0
    153, 5.3854e-06, 0.00100244, 0, 0
    154, 5.16511e-06, 0.000992398, 0, 0
    155, 5.19265e-06, 0.000962633, 0, 0
    156, 4.96587e-06, 0.000952437, 0, 0
    157, 4.99481e-06, 0.000923978, 0, 0
    158, 4.77557e-06, 0.000914207, 0, 0
    159, 4.80386e-06, 0.000886829, 0, 0
    160, 4.59223e-06, 0.00087747, 0, 0
    161, 4.61971e-06, 0.00085125, 0, 0
    162, 4.41595e-06, 0.000842348, 0, 0
    163, 4.44213e-06, 0.000817238, 0, 0
    164, 4.24629e-06, 0.000808765, 0, 0
    165, 4.271e-06, 0.000784672, 0, 0
    166, 4.08273e-06, 0.000776597, 0, 0
    167, 4.10628e-06, 0.000753477, 0, 0
    168, 3.9252e-06, 0.000745725, 0, 0
    169, 3.9485e-06, 0.00072353, 0, 0
    170, 3.77458e-06, 0.000716102, 0, 0
    171, 3.79722e-06, 0.000694802, 0, 0
    172, 3.62952e-06, 0.000687694, 0, 0
    173, 3.65122e-06, 0.000667231, 0, 0
    174, 3.49025e-06, 0.000660417, 0, 0
    175, 3.51139e-06, 0.000640786, 0, 0
    176, 3.35656e-06, 0.000634278, 0, 0
    177, 3.37662e-06, 0.000615461, 0, 0
    178, 3.22754e-06, 0.000609199, 0, 0
    179, 3.24712e-06, 0.00059114, 0, 0
    180, 3.10413e-06, 0.000585147, 0, 0
    181, 3.12303e-06, 0.000567813, 0, 0
    182, 2.98547e-06, 0.000562092, 0, 0
    183, 3.00337e-06, 0.00054544, 0, 0
    184, 2.87124e-06, 0.000539955, 0, 0
    185, 2.88857e-06, 0.000523973, 0, 0
    186, 2.76137e-06, 0.00051871, 0, 0
    187, 2.77815e-06, 0.00050337, 0, 0
    188, 2.65594e-06, 0.000498322, 0, 0
    189, 2.67199e-06, 0.000483602, 0, 0
    190, 2.55412e-06, 0.000478766, 0, 0
    191, 2.56949e-06, 0.000464612, 0, 0
    192, 2.45656e-06, 0.000459978, 0, 0
    193, 2.47146e-06, 0.000446393, 0, 0
    194, 2.36287e-06, 0.000441956, 0, 0
    195, 2.37715e-06, 0.000428913, 0, 0
    196, 2.27265e-06, 0.000424652, 0, 0
    197, 2.28646e-06, 0.000412127, 0, 0
    198, 2.18586e-06, 0.000408048, 0, 0
    199, 2.19903e-06, 0.000396006, 0, 0
    200, 2.10254e-06, 0.00039209, 0, 0
    201, 2.11531e-06, 0.000380543, 0, 0
    202, 2.02233e-06, 0.000376777, 0, 0
    203, 2.03471e-06, 0.000365689, 0, 0
    204, 1.94539e-06, 0.000362066, 0, 0
    205, 1.95724e-06, 0.000351422, 0, 0
    206, 1.87107e-06, 0.000347956, 0, 0
    207, 1.88236e-06, 0.000337721, 0, 0
    208, 1.79967e-06, 0.000334388, 0, 0
    209, 1.81076e-06, 0.00032456, 0, 0
    210, 1.73132e-06, 0.000321365, 0, 0
    211, 1.74182e-06, 0.000311933, 0, 0
    212, 1.66522e-06, 0.00030887, 0, 0
    213, 1.6753e-06, 0.000299787, 0, 0
    214, 1.60193e-06, 0.000296849, 0, 0
    215, 1.61167e-06, 0.000288145, 0, 0
    216, 1.54096e-06, 0.000285301, 0, 0
    217, 1.55042e-06, 0.000276955, 0, 0
    218, 1.48241e-06, 0.000274225, 0, 0
    219, 1.49153e-06, 0.000266189, 0, 0
    220, 1.42614e-06, 0.000263581, 0, 0
    221, 1.4348e-06, 0.000255861, 0, 0
    222, 1.37187e-06, 0.000253351, 0, 0
    223, 1.3803e-06, 0.000245938, 0, 0
    224, 1.31985e-06, 0.000243522, 0, 0
    225, 1.32801e-06, 0.000236401, 0, 0
    226, 1.26988e-06, 0.000234084, 0, 0
    227, 1.27758e-06, 0.000227239, 0, 0
    228, 1.22153e-06, 0.000225021, 0, 0
    229, 1.2289e-06, 0.00021843, 0, 0
    230, 1.17518e-06, 0.000216302, 0, 0
    231, 1.18232e-06, 0.000209975, 0, 0
    232, 1.1306e-06, 0.00020793, 0, 0
    233, 1.1375e-06, 0.000201852, 0, 0
    234, 1.0878e-06, 0.000199883, 0, 0
    235, 1.09437e-06, 0.000194052, 0, 0
    236, 1.04642e-06, 0.000192144, 0, 0
    237, 1.05285e-06, 0.000186549, 0, 0
    238, 1.00679e-06, 0.00018472, 0, 0
    239, 1.01295e-06, 0.000179337, 0, 0
    240, 9.68641e-07, 0.000177579, 0, 0
    241, 9.74586e-07, 0.000172409, 0, 0
    242, 9.32031e-07, 0.000170719, 0, 0
    243, 9.37642e-07, 0.000165755, 0, 0
    244, 8.96598e-07, 0.000164131, 0, 0
    245, 9.01944e-07, 0.000159351, 0, 0
    246, 8.62537e-07, 0.00015779, 0, 0
    247, 8.67806e-07, 0.000153199, 0, 0
    248, 8.2999e-07, 0.0001517, 0, 0
    249, 8.34981e-07, 0.000147295, 0, 0
    250, 7.98506e-07, 0.000145858, 0, 0
    251, 8.0324e-07, 0.000141605, 0, 0
    252, 7.68308e-07, 0.000140228, 0, 0
    253, 7.72921e-07, 0.00013615, 0, 0
    254, 7.39243e-07, 0.000134816, 0, 0
    255, 7.43715e-07, 0.000130909, 0, 0
    256, 7.11304e-07, 0.000129623, 0, 0
    257, 7.156e-07, 0.000125861, 0, 0
    258, 6.8444e-07, 0.000124628, 0, 0
    259, 6.88557e-07, 0.000121013, 0, 0
    260, 6.58557e-07, 0.000119829, 0, 0
    261, 6.62442e-07, 0.000116352, 0, 0
    262, 6.33598e-07, 0.000115211, 0, 0
    263, 6.37381e-07, 0.000111871, 0, 0
    264, 6.09643e-07, 0.000110779, 0, 0
    265, 6.13232e-07, 0.000107563, 0, 0
    266, 5.86595e-07, 0.000106512, 0, 0
    267, 5.9009e-07, 0.000103426, 0, 0
    268, 5.64424e-07, 0.00010241, 0, 0
    269, 5.6783e-07, 9.94507e-05, 0, 0
    270, 5.43137e-07, 9.84708e-05, 0, 0
    271, 5.46405e-07, 9.5623e-05, 0, 0
    272, 5.22684e-07, 9.46872e-05, 0, 0
    273, 5.25776e-07, 9.1946e-05, 0, 0
    274, 5.02945e-07, 9.10464e-05, 0, 0
    275, 5.05897e-07, 8.84119e-05, 0, 0
    276, 4.83916e-07, 8.75419e-05, 0, 0
    277, 4.86831e-07, 8.50123e-05, 0, 0
    278, 4.65694e-07, 8.41774e-05, 0, 0
    279, 4.6846e-07, 8.17455e-05, 0, 0
    280, 4.48132e-07, 8.09431e-05, 0, 0
    281, 4.50782e-07, 7.86024e-05, 0, 0
    282, 4.3125e-07, 7.78344e-05, 0, 0
    283, 4.33772e-07, 7.55829e-05, 0, 0
    284, 4.14967e-07, 7.48442e-05, 0, 0
    285, 4.17388e-07, 7.26804e-05, 0, 0
    286, 3.99305e-07, 7.19693e-05, 0, 0
    287, 4.01633e-07, 6.98875e-05, 0, 0
    288, 3.84256e-07, 6.92055e-05, 0, 0
    289, 3.86489e-07, 6.7203e-05, 0, 0
    290, 3.69783e-07, 6.65477e-05, 0, 0
    291, 3.72345e-07, 6.46114e-05, 0, 0
    292, 3.55629e-07, 6.39707e-05, 0, 0
    293, 3.58444e-07, 6.21355e-05, 0, 0
    294, 3.4266e-07, 6.15282e-05, 0, 0
    295, 3.455e-07, 5.97638e-05, 0, 0
    296, 3.29516e-07, 5.9155e-05, 0, 0
    297, 3.32479e-07, 5.74676e-05, 0, 0
    298, 3.17493e-07, 5.68838e-05, 0, 0
    299, 3.19714e-07, 5.52286e-05, 0, 0
    300, 3.06259e-07, 5.47185e-05, 0, 0
    301, 3.08094e-07, 5.31177e-05, 0, 0
    302, 2.94608e-07, 5.26079e-05, 0, 0
    303, 2.96342e-07, 5.10775e-05, 0, 0
    304, 2.8351e-07, 5.05892e-05, 0, 0
    305, 2.85152e-07, 4.91188e-05, 0, 0
    306, 2.72849e-07, 4.86455e-05, 0, 0
    307, 2.74404e-07, 4.72369e-05, 0, 0
    308, 2.62583e-07, 4.67804e-05, 0, 0
    309, 2.64032e-07, 4.54283e-05, 0, 0
    310, 2.52667e-07, 4.49888e-05, 0, 0
    311, 2.54033e-07, 4.36888e-05, 0, 0
    312, 2.43105e-07, 4.32653e-05, 0, 0
    313, 2.44427e-07, 4.20167e-05, 0, 0
    314, 2.33916e-07, 4.16091e-05, 0, 0
    315, 2.35187e-07, 4.04077e-05, 0, 0
    316, 2.25078e-07, 4.00148e-05, 0, 0
    317, 2.26309e-07, 3.88601e-05, 0, 0
    318, 2.16585e-07, 3.84812e-05, 0, 0
    319, 2.17765e-07, 3.73705e-05, 0, 0
    320, 2.08422e-07, 3.70065e-05, 0, 0
    321, 2.09547e-07, 3.59389e-05, 0, 0
    322, 2.00557e-07, 3.55892e-05, 0, 0
    323, 2.0164e-07, 3.45626e-05, 0, 0
    324, 1.92978e-07, 3.42259e-05, 0, 0
    325, 1.94024e-07, 3.32387e-05, 0, 0
    326, 1.85704e-07, 3.29156e-05, 0, 0
    327, 1.86703e-07, 3.1966e-05, 0, 0
    328, 1.78694e-07, 3.16544e-05, 0, 0
    329, 1.79668e-07, 3.0742e-05, 0, 0
    330, 1.71972e-07, 3.0443e-05, 0, 0
    331, 1.729e-07, 2.95651e-05, 0, 0
    332, 1.65491e-07, 2.92769e-05, 0, 0
    333, 1.6639e-07, 2.84334e-05, 0, 0
    334, 1.59272e-07, 2.81567e-05, 0, 0
    335, 1.60128e-07, 2.73447e-05, 0, 0
    336, 1.53281e-07, 2.70781e-05, 0, 0
    337, 1.54115e-07, 2.62983e-05, 0, 0
    338, 1.47533e-07, 2.60421e-05, 0, 0
    339, 1.48327e-07, 2.52917e-05, 0, 0
    340, 1.41993e-07, 2.50453e-05, 0, 0
    341, 1.42756e-07, 2.43242e-05, 0, 0
    342, 1.36662e-07, 2.40865e-05, 0, 0
    343, 1.374e-07, 2.33928e-05, 0, 0
    344, 1.31542e-07, 2.31647e-05, 0, 0
    345, 1.32251e-07, 2.24982e-05, 0, 0
    346, 1.26612e-07, 2.22786e-05, 0, 0
    347, 1.27289e-07, 2.16372e-05, 0, 0
    348, 1.21868e-07, 2.14261e-05, 0, 0
    349, 1.22515e-07, 2.08095e-05, 0, 0
    350, 1.17299e-07, 2.06067e-05, 0, 0
    351, 1.17922e-07, 2.00132e-05, 0, 0
    352, 1.12901e-07, 1.98181e-05, 0, 0
    353, 1.13503e-07, 1.92479e-05, 0, 0
    354, 1.08674e-07, 1.90604e-05, 0, 0
    355, 1.09244e-07, 1.8511e-05, 0, 0
    356, 1.04608e-07, 1.83309e-05, 0, 0
    357, 1.05163e-07, 1.78034e-05, 0, 0
    358, 1.00695e-07, 1.76302e-05, 0, 0
    359, 1.01227e-07, 1.71229e-05, 0, 0
    The solver residual has converged
    360, 9.69285e-08, 1.69559e-05, 0, 0

Max sigmaEq (von Mises stress) = 2.73776e+08
ExecutionTime = 5.98 s  ClockTime = 6 s

The momentum equation converged in all time-steps


End

