/*---------------------------------------------------------------------------*\
| =========                 |                                                 |
| \\      /  F ield         | foam-extend: Open Source CFD                    |
|  \\    /   O peration     | Version:     4.1                                |
|   \\  /    A nd           | Web:         http://www.foam-extend.org         |
|    \\/     M anipulation  | For copyright notice see file Copyright         |
\*---------------------------------------------------------------------------*/
Build  : 4.1-70b064d0f326
Exec   : solids4Foam
Date   : Dec 12 2022
Time   : 20:16:49
Host   : "iloliveira"
PID    : 119325
CtrlDict : "/home/iloliveira/foam/solids4foam-fork-fe41/tutorials/solids/hyperelasticity/cylindricalPressureVesselBijelonja/system/controlDict"
Case   : /home/iloliveira/foam/solids4foam-fork-fe41/tutorials/solids/hyperelasticity/cylindricalPressureVesselBijelonja
nProcs : 1
sigFpe : Enabling floating point exception trapping (FOAM_SIGFPE).
allowSystemOperations : Disallowing user-supplied system call operations

// * * * * * * * * * * * * * * * * * * * * * * * * * * * * * * * * * * * * * //
Create time

/*---------------------------------------------------------------------------*\
|    For further information on the solids4Foam toolbox implementations,      |
|    please see the following publications:                                   |
|                                                                             |
|    P. Cardiff, A Karac, P. De Jaeger, H. Jasak, J. Nagy, A. Ivankovic,      |
|    Z. Tukovic: An open-source finite volume toolbox for solid mechanics and |
|    fluid-solid interaction simulations. arXiv:1808.10736v2, 2018, available |
|    at https://arxiv.org/abs/1808.10736.                                     |
|                                                                             |
|    Z. Tukovic, A. Karac, P. Cardiff, H. Jasak, A. Ivankovic: OpenFOAM       |
|    finite volume solver for fluid-solid interaction.  Transactions of       |
|    Famena, 42 (3), pp. 1-31, 2018, 10.21278/TOF.42301.                      |
\*---------------------------------------------------------------------------*/

Selecting physicsModel solidModel
Selecting solidModel nonLinearGeometryTotalLagrangianTotalDisplacement
Selecting dynamicFvMesh staticFvMesh
Creating solidTraction boundary condition
    pressure is time-varying
Creating solidTraction boundary condition
    under-relaxation method: fixed
Creating the mechanicalModel
Selecting mechanical law MooneyRivlinElastic
    Laplacian equation will be solved for pressure
    pressureSmoothingScaleFactor: 100
Material properties 
    max(c10) = 8e+07
    max(c01) = 2e+07
    max(c11) = 0
    max(mu) = 2e+08
    max(K) = 5e+08
Creating disp function object
    region = region0
    distance from specified point is 0
Time = 10

Evolving solid solver
Solving the total Lagrangian form of the momentum equation for D
setCellDisplacements: reading cellDisplacements
    Corr, res, relRes, matRes, iters
    1, 0.016851, 0.270372, 0, 0
    2, 0.00360831, 0.15126, 0, 0
    3, 0.00301777, 0.0571701, 0, 0
    4, 0.000988745, 0.0351752, 0, 0
    5, 0.000807947, 0.0145526, 0, 0
    6, 0.000323867, 0.00881792, 0, 0
    7, 0.000259236, 0.00385139, 0, 0
    8, 0.000141756, 0.0022734, 0, 0
    9, 0.000113698, 0.0010387, 0, 0
    10, 7.93126e-05, 0.000612392, 0, 0
    11, 6.37456e-05, 0.000299476, 0, 0
    12, 5.25818e-05, 0.000174738, 0, 0
    13, 4.59895e-05, 9.85487e-05, 0, 0
    14, 4.01711e-05, 2.4795e-05, 0, 0
    15, 3.48384e-05, 6.45172e-05, 0, 0
    16, 2.98126e-05, 1.87378e-05, 0, 0
    17, 2.53837e-05, 1.56433e-05, 0, 0
    18, 2.19362e-05, 3.8729e-05, 0, 0
    19, 1.89e-05, 1.24031e-05, 0, 0
    20, 1.62792e-05, 8.96217e-06, 0, 0
    21, 1.41971e-05, 2.30825e-05, 0, 0
    22, 1.23958e-05, 8.96584e-06, 0, 0
    23, 1.08356e-05, 5.47142e-06, 0, 0
    24, 9.53776e-06, 1.54111e-05, 0, 0
    25, 8.35834e-06, 1.67289e-05, 0, 0
    26, 7.35101e-06, 1.26258e-05, 0, 0
    27, 6.53968e-06, 6.02706e-06, 0, 0
    28, 5.70287e-06, 1.07198e-05, 0, 0
    29, 5.07024e-06, 1.11228e-05, 0, 0
    30, 4.51933e-06, 1.09911e-05, 0, 0
    31, 3.96422e-06, 8.04844e-06, 0, 0
    32, 3.56476e-06, 8.01596e-06, 0, 0
    33, 3.11741e-06, 6.8158e-06, 0, 0
    34, 2.81387e-06, 6.88796e-06, 0, 0
    35, 2.46986e-06, 5.82678e-06, 0, 0
    36, 2.23877e-06, 5.98016e-06, 0, 0
    37, 1.96449e-06, 5.09277e-06, 0, 0
    38, 1.79007e-06, 5.08709e-06, 0, 0
    39, 1.56414e-06, 4.41008e-06, 0, 0
    40, 1.43718e-06, 4.21127e-06, 0, 0
    41, 1.25219e-06, 3.86584e-06, 0, 0
    42, 1.15508e-06, 3.58082e-06, 0, 0
    43, 1.00572e-06, 3.391e-06, 0, 0
    44, 9.31087e-07, 3.09994e-06, 0, 0
    45, 8.05197e-07, 2.86502e-06, 0, 0
    46, 7.45907e-07, 2.65794e-06, 0, 0
    47, 6.45881e-07, 2.4342e-06, 0, 0
    48, 6.02301e-07, 2.28281e-06, 0, 0
    49, 5.21088e-07, 2.09954e-06, 0, 0
    50, 4.88044e-07, 1.96518e-06, 0, 0
    51, 4.20907e-07, 1.80911e-06, 0, 0
    52, 3.95732e-07, 1.69079e-06, 0, 0
    53, 3.40219e-07, 1.56007e-06, 0, 0
    54, 3.2105e-07, 1.4176e-06, 0, 0
    55, 2.75263e-07, 1.32878e-06, 0, 0
    56, 2.59651e-07, 1.03132e-06, 0, 0
    Both residuals have converged
    57, 2.26022e-07, 8.37319e-07, 0, 0

Max sigmaEq (von Mises stress) = 1.98033e+07
ExecutionTime = 0.12 s  ClockTime = 1 s

Time = 20

Evolving solid solver
Solving the total Lagrangian form of the momentum equation for D
    Corr, res, relRes, matRes, iters
    1, 0.00670668, 0.296121, 0, 0
    2, 0.00193751, 0.163369, 0, 0
    3, 0.00158814, 0.0695926, 0, 0
    4, 0.00062235, 0.0418209, 0, 0
    5, 0.000468702, 0.0196643, 0, 0
    6, 0.000215817, 0.0116278, 0, 0
    7, 0.000171118, 0.0058006, 0, 0
    8, 0.000107124, 0.00334514, 0, 0
    9, 8.34989e-05, 0.00174956, 0, 0
    10, 5.92082e-05, 0.00101504, 0, 0
    11, 4.63765e-05, 0.000549498, 0, 0
    12, 3.65963e-05, 0.000327006, 0, 0
    13, 3.05722e-05, 0.000181201, 0, 0
    14, 2.57371e-05, 0.000114465, 0, 0
    15, 2.23508e-05, 6.07282e-05, 0, 0
    16, 1.94119e-05, 7.10389e-05, 0, 0
    17, 1.66491e-05, 2.14069e-05, 0, 0
    18, 1.44238e-05, 1.35149e-05, 0, 0
    19, 1.26145e-05, 1.10752e-05, 0, 0
    20, 1.10161e-05, 4.5605e-05, 0, 0
    21, 9.64203e-06, 1.29528e-05, 0, 0
    22, 8.45271e-06, 7.99462e-06, 0, 0
    23, 7.48484e-06, 6.04803e-06, 0, 0
    24, 6.5584e-06, 2.54677e-05, 0, 0
    25, 5.77166e-06, 8.00855e-06, 0, 0
    26, 5.09379e-06, 5.03066e-06, 0, 0
    27, 4.52348e-06, 4.78803e-06, 0, 0
    28, 3.98128e-06, 1.56889e-05, 0, 0
    29, 3.53534e-06, 1.46655e-05, 0, 0
    30, 3.12605e-06, 1.22368e-05, 0, 0
    31, 2.82192e-06, 1.04562e-05, 0, 0
    32, 2.47255e-06, 3.62078e-06, 0, 0
    33, 2.23494e-06, 8.49072e-06, 0, 0
    34, 1.98267e-06, 8.90425e-06, 0, 0
    35, 1.74138e-06, 7.83739e-06, 0, 0
    36, 1.593e-06, 6.84939e-06, 0, 0
    37, 1.39236e-06, 5.77817e-06, 0, 0
    38, 1.27071e-06, 5.3976e-06, 0, 0
    39, 1.11535e-06, 4.83892e-06, 0, 0
    40, 1.01917e-06, 4.47959e-06, 0, 0
    41, 8.92369e-07, 4.13627e-06, 0, 0
    42, 8.18156e-07, 3.97325e-06, 0, 0
    43, 7.15121e-07, 3.54252e-06, 0, 0
    44, 6.58052e-07, 3.24746e-06, 0, 0
    45, 5.74069e-07, 3.02371e-06, 0, 0
    46, 5.30898e-07, 2.73804e-06, 0, 0
    47, 4.61326e-07, 2.61155e-06, 0, 0
    48, 4.28063e-07, 2.33307e-06, 0, 0
    49, 3.70803e-07, 2.22937e-06, 0, 0
    50, 3.45495e-07, 1.98825e-06, 0, 0
    51, 2.9845e-07, 1.91287e-06, 0, 0
    52, 2.79257e-07, 1.69186e-06, 0, 0
    53, 2.4059e-07, 1.62959e-06, 0, 0
    54, 2.26058e-07, 1.44491e-06, 0, 0
    55, 1.94184e-07, 1.39786e-06, 0, 0
    56, 1.83219e-07, 1.23089e-06, 0, 0
    57, 1.56213e-07, 1.16195e-06, 0, 0
    58, 1.47126e-07, 1.04124e-06, 0, 0
    Both residuals have converged
    59, 1.25639e-07, 9.78995e-07, 0, 0

Max sigmaEq (von Mises stress) = 4.04537e+07
ExecutionTime = 0.23 s  ClockTime = 1 s

Time = 30

Evolving solid solver
Solving the total Lagrangian form of the momentum equation for D
    Corr, res, relRes, matRes, iters
    1, 0.00416786, 0.321131, 0, 0
    2, 0.00148507, 0.176106, 0, 0
    3, 0.00114654, 0.0821725, 0, 0
    4, 0.000510354, 0.0489971, 0, 0
    5, 0.000368623, 0.0253717, 0, 0
    6, 0.000194188, 0.0150241, 0, 0
    7, 0.000145614, 0.00811465, 0, 0
    8, 9.25413e-05, 0.00482437, 0, 0
    9, 7.06963e-05, 0.00268603, 0, 0
    10, 4.90808e-05, 0.00163316, 0, 0
    11, 3.9175e-05, 0.000924425, 0, 0
    12, 3.01388e-05, 0.000579116, 0, 0
    13, 2.50379e-05, 0.000331064, 0, 0
    14, 2.01134e-05, 0.000213447, 0, 0
    15, 1.70088e-05, 0.000125187, 0, 0
    16, 1.44193e-05, 8.61584e-05, 0, 0
    17, 1.27207e-05, 2.47725e-05, 0, 0
    18, 1.09025e-05, 5.31151e-05, 0, 0
    19, 9.67109e-06, 1.44376e-05, 0, 0
    20, 8.42849e-06, 1.20769e-05, 0, 0
    21, 7.48819e-06, 8.98701e-06, 0, 0
    22, 6.59261e-06, 3.55998e-05, 0, 0
    23, 5.76727e-06, 1.08e-05, 0, 0
    24, 5.09058e-06, 5.67807e-06, 0, 0
    25, 4.47362e-06, 5.69274e-06, 0, 0
    26, 3.94279e-06, 5.56322e-06, 0, 0
    27, 3.49717e-06, 1.97111e-05, 0, 0
    28, 3.08016e-06, 6.02006e-06, 0, 0
    29, 2.72379e-06, 3.29114e-06, 0, 0
    30, 2.4056e-06, 1.19898e-05, 0, 0
    31, 2.13297e-06, 3.45252e-06, 0, 0
    32, 1.89213e-06, 2.13144e-06, 0, 0
    33, 1.68556e-06, 2.45843e-06, 0, 0
    34, 1.48373e-06, 7.54739e-06, 0, 0
    35, 1.33579e-06, 3.3286e-06, 0, 0
    36, 1.17322e-06, 2.28144e-06, 0, 0
    37, 1.04859e-06, 5.34655e-06, 0, 0
    38, 9.35126e-07, 1.66881e-06, 0, 0
    39, 8.39352e-07, 4.08394e-06, 0, 0
    40, 7.49983e-07, 4.88105e-06, 0, 0
    41, 6.61217e-07, 3.96909e-06, 0, 0
    42, 6.04331e-07, 1.65337e-06, 0, 0
    43, 5.28194e-07, 3.06921e-06, 0, 0
    44, 4.73171e-07, 3.1899e-06, 0, 0
    45, 4.31542e-07, 3.0578e-06, 0, 0
    46, 3.7828e-07, 2.33164e-06, 0, 0
    47, 3.46376e-07, 2.19161e-06, 0, 0
    48, 3.03049e-07, 1.89849e-06, 0, 0
    49, 2.77181e-07, 1.82454e-06, 0, 0
    50, 2.42764e-07, 1.56841e-06, 0, 0
    51, 2.23579e-07, 1.55525e-06, 0, 0
    52, 1.9529e-07, 1.34831e-06, 0, 0
    53, 1.79939e-07, 1.29779e-06, 0, 0
    54, 1.57009e-07, 1.13273e-06, 0, 0
    55, 1.45009e-07, 1.0943e-06, 0, 0
    Both residuals have converged
    56, 1.2631e-07, 9.62225e-07, 0, 0

Max sigmaEq (von Mises stress) = 6.21205e+07
ExecutionTime = 0.33 s  ClockTime = 1 s

Time = 40

Evolving solid solver
Solving the total Lagrangian form of the momentum equation for D
    Corr, res, relRes, matRes, iters
    1, 0.00300719, 0.345686, 0, 0
    2, 0.00128558, 0.18976, 0, 0
    3, 0.000939574, 0.0949645, 0, 0
    4, 0.000467089, 0.0572017, 0, 0
    5, 0.000331473, 0.0311423, 0, 0
    6, 0.000180347, 0.0192147, 0, 0
    7, 0.000138144, 0.0108972, 0, 0
    8, 8.65761e-05, 0.00679685, 0, 0
    9, 6.68882e-05, 0.00398246, 0, 0
    10, 4.57579e-05, 0.00252503, 0, 0
    11, 3.6508e-05, 0.0015066, 0, 0
    12, 2.69603e-05, 0.000974691, 0, 0
    13, 2.21186e-05, 0.000586571, 0, 0
    14, 1.72137e-05, 0.000383029, 0, 0
    15, 1.44929e-05, 0.000232871, 0, 0
    16, 1.20169e-05, 0.000154013, 0, 0
    17, 1.03884e-05, 9.48201e-05, 0, 0
    18, 8.88938e-06, 6.76438e-05, 0, 0
    19, 7.97828e-06, 1.93406e-05, 0, 0
    20, 6.86242e-06, 4.53945e-05, 0, 0
    21, 6.15725e-06, 1.16852e-05, 0, 0
    22, 5.40872e-06, 1.00516e-05, 0, 0
    23, 4.78536e-06, 3.08584e-05, 0, 0
    24, 4.21186e-06, 7.97977e-06, 0, 0
    25, 3.7292e-06, 5.29372e-06, 0, 0
    26, 3.30492e-06, 5.09174e-06, 0, 0
    27, 2.89589e-06, 5.72084e-06, 0, 0
    28, 2.57557e-06, 1.78828e-05, 0, 0
    29, 2.27724e-06, 4.43908e-06, 0, 0
    30, 2.01575e-06, 3.28305e-06, 0, 0
    31, 1.79753e-06, 3.37039e-06, 0, 0
    32, 1.58446e-06, 3.28951e-06, 0, 0
    33, 1.40874e-06, 1.0907e-05, 0, 0
    34, 1.25909e-06, 3.13878e-06, 0, 0
    35, 1.11691e-06, 1.60958e-06, 0, 0
    36, 9.98379e-07, 6.48741e-06, 0, 0
    37, 8.82733e-07, 2.00576e-06, 0, 0
    38, 7.86732e-07, 1.08538e-06, 0, 0
    39, 7.03128e-07, 1.30311e-06, 0, 0
    40, 6.21512e-07, 1.30066e-06, 0, 0
    41, 5.58405e-07, 4.23909e-06, 0, 0
    42, 5.02002e-07, 1.39356e-06, 0, 0
    43, 4.42803e-07, 2.84464e-06, 0, 0
    44, 3.96908e-07, 1.17828e-06, 0, 0
    Both residuals have converged
    45, 3.51732e-07, 8.3e-07, 0, 0

Max sigmaEq (von Mises stress) = 8.50064e+07
ExecutionTime = 0.41 s  ClockTime = 1 s

Time = 50

Evolving solid solver
Solving the total Lagrangian form of the momentum equation for D
    Corr, res, relRes, matRes, iters
    1, 0.0023482, 0.37017, 0, 0
    2, 0.00116579, 0.20366, 0, 0
    3, 0.000824011, 0.107591, 0, 0
    4, 0.00044816, 0.0655339, 0, 0
    5, 0.000320704, 0.037891, 0, 0
    6, 0.000185502, 0.0238691, 0, 0
    7, 0.000136858, 0.0144613, 0, 0
    8, 8.93138e-05, 0.00928952, 0, 0
    9, 6.75031e-05, 0.00579066, 0, 0
    10, 4.71824e-05, 0.00377531, 0, 0
    11, 3.66665e-05, 0.00240821, 0, 0
    12, 2.75511e-05, 0.00156759, 0, 0
    13, 2.16804e-05, 0.00100856, 0, 0
    14, 1.65924e-05, 0.000660115, 0, 0
    15, 1.36157e-05, 0.000426975, 0, 0
    16, 1.11462e-05, 0.000282019, 0, 0
    17, 9.46563e-06, 0.000185429, 0, 0
    18, 8.07194e-06, 0.000123054, 0, 0
    19, 6.98254e-06, 8.07988e-05, 0, 0
    20, 6.03612e-06, 2.24648e-05, 0, 0
    21, 5.23676e-06, 5.88528e-05, 0, 0
    22, 4.71061e-06, 1.36972e-05, 0, 0
    23, 4.06402e-06, 7.85186e-06, 0, 0
    24, 3.59071e-06, 3.43907e-05, 0, 0
    25, 3.17696e-06, 8.60465e-06, 0, 0
    26, 2.79968e-06, 5.82027e-06, 0, 0
    27, 2.49205e-06, 1.96446e-05, 0, 0
    28, 2.19362e-06, 4.47195e-06, 0, 0
    29, 1.94831e-06, 3.39843e-06, 0, 0
    30, 1.73475e-06, 1.26085e-05, 0, 0
    31, 1.52836e-06, 3.29447e-06, 0, 0
    32, 1.36145e-06, 2.29207e-06, 0, 0
    33, 1.21503e-06, 2.6504e-06, 0, 0
    34, 1.07153e-06, 2.64608e-06, 0, 0
    35, 9.59922e-07, 8.35673e-06, 0, 0
    36, 8.56435e-07, 2.11195e-06, 0, 0
    37, 7.56525e-07, 1.53507e-06, 0, 0
    38, 6.72882e-07, 5.61745e-06, 0, 0
    39, 6.01991e-07, 1.6645e-06, 0, 0
    Both residuals have converged
    40, 5.35891e-07, 9.35185e-07, 0, 0

Max sigmaEq (von Mises stress) = 1.09365e+08
ExecutionTime = 0.48 s  ClockTime = 1 s

Time = 60

Evolving solid solver
Solving the total Lagrangian form of the momentum equation for D
    Corr, res, relRes, matRes, iters
    1, 0.00192184, 0.39491, 0, 0
    2, 0.00108268, 0.217959, 0, 0
    3, 0.000757881, 0.11999, 0, 0
    4, 0.000439784, 0.0744104, 0, 0
    5, 0.000319468, 0.0450747, 0, 0
    6, 0.000195012, 0.0293257, 0, 0
    7, 0.000140615, 0.0186628, 0, 0
    8, 9.3985e-05, 0.0124452, 0, 0
    9, 7.06649e-05, 0.00816866, 0, 0
    10, 5.07194e-05, 0.00549562, 0, 0
    11, 3.86669e-05, 0.00367122, 0, 0
    12, 2.88932e-05, 0.00246824, 0, 0
    13, 2.22721e-05, 0.00165781, 0, 0
    14, 1.69841e-05, 0.00111921, 0, 0
    15, 1.35129e-05, 0.000753594, 0, 0
    16, 1.08892e-05, 0.000509401, 0, 0
    17, 9.02721e-06, 0.000346354, 0, 0
    18, 7.56165e-06, 0.000236797, 0, 0
    19, 6.45009e-06, 0.000162364, 0, 0
    20, 5.55149e-06, 0.000110974, 0, 0
    21, 4.79775e-06, 7.61192e-05, 0, 0
    22, 4.15711e-06, 5.25301e-05, 0, 0
    23, 3.62335e-06, 1.46276e-05, 0, 0
    24, 3.13086e-06, 3.96784e-05, 0, 0
    25, 2.84268e-06, 8.92055e-06, 0, 0
    26, 2.43788e-06, 2.72693e-06, 0, 0
    27, 2.15317e-06, 2.32393e-05, 0, 0
    28, 1.91392e-06, 1.19682e-05, 0, 0
    29, 1.70431e-06, 4.72939e-06, 0, 0
    30, 1.48238e-06, 2.98739e-06, 0, 0
    31, 1.32214e-06, 1.36497e-05, 0, 0
    32, 1.17869e-06, 3.6508e-06, 0, 0
    33, 1.044e-06, 2.45604e-06, 0, 0
    34, 9.24441e-07, 2.27062e-06, 0, 0
    35, 8.23307e-07, 8.53206e-06, 0, 0
    36, 7.31908e-07, 2.53025e-06, 0, 0
    37, 6.50469e-07, 1.41119e-06, 0, 0
    38, 5.82485e-07, 5.37241e-06, 0, 0
    39, 5.16154e-07, 1.59433e-06, 0, 0
    40, 4.59933e-07, 1.00193e-06, 0, 0
    41, 4.0961e-07, 3.76248e-06, 0, 0
    42, 3.64763e-07, 1.10607e-06, 0, 0
    Both residuals have converged
    43, 3.25998e-07, 8.71201e-07, 0, 0

Max sigmaEq (von Mises stress) = 1.35525e+08
ExecutionTime = 0.57 s  ClockTime = 1 s

Time = 70

Evolving solid solver
Solving the total Lagrangian form of the momentum equation for D
    Corr, res, relRes, matRes, iters
    1, 0.001624, 0.420366, 0, 0
    2, 0.00103731, 0.232082, 0, 0
    3, 0.000695047, 0.132939, 0, 0
    4, 0.000444425, 0.0834727, 0, 0
    5, 0.000320491, 0.0532524, 0, 0
    6, 0.000208773, 0.03556, 0, 0
    7, 0.000147538, 0.0237963, 0, 0
    8, 0.000103079, 0.0163741, 0, 0
    9, 7.64606e-05, 0.0112473, 0, 0
    10, 5.59375e-05, 0.00783331, 0, 0
    11, 4.24724e-05, 0.00543989, 0, 0
    12, 3.18008e-05, 0.00379124, 0, 0
    13, 2.40771e-05, 0.00265596, 0, 0
    14, 1.83034e-05, 0.00184761, 0, 0
    15, 1.43161e-05, 0.00129779, 0, 0
    16, 1.14093e-05, 0.00090922, 0, 0
    17, 9.25813e-06, 0.000639637, 0, 0
    18, 7.60879e-06, 0.000449325, 0, 0
    19, 6.30946e-06, 0.0003191, 0, 0
    20, 5.30274e-06, 0.000225051, 0, 0
    21, 4.5048e-06, 0.000160025, 0, 0
    22, 3.86376e-06, 0.000112763, 0, 0
    23, 3.33462e-06, 7.97881e-05, 0, 0
    24, 2.89372e-06, 5.65868e-05, 0, 0
    25, 2.51703e-06, 4.03496e-05, 0, 0
    26, 2.20325e-06, 1.17667e-05, 0, 0
    27, 1.91549e-06, 3.30004e-05, 0, 0
    28, 1.75936e-06, 8.39117e-06, 0, 0
    29, 1.50069e-06, 1.87656e-05, 0, 0
    30, 1.33047e-06, 1.19938e-05, 0, 0
    31, 1.18394e-06, 4.05273e-06, 0, 0
    32, 1.04925e-06, 1.15142e-06, 0, 0
    33, 9.24105e-07, 1.06053e-05, 0, 0
    34, 8.26862e-07, 2.96909e-06, 0, 0
    Both residuals have converged
    35, 7.34714e-07, 3.18722e-07, 0, 0

Max sigmaEq (von Mises stress) = 1.63924e+08
ExecutionTime = 0.64 s  ClockTime = 1 s

Time = 80

Evolving solid solver
Solving the total Lagrangian form of the momentum equation for D
    Corr, res, relRes, matRes, iters
    1, 0.00140295, 0.446784, 0, 0
    2, 0.000990707, 0.246254, 0, 0
    3, 0.000656195, 0.145377, 0, 0
    4, 0.000457557, 0.0931147, 0, 0
    5, 0.000329139, 0.062122, 0, 0
    6, 0.000230888, 0.0427605, 0, 0
    7, 0.00016609, 0.0298364, 0, 0
    8, 0.000120043, 0.021169, 0, 0
    9, 9.00394e-05, 0.0151557, 0, 0
    10, 6.79826e-05, 0.0109184, 0, 0
    11, 5.18036e-05, 0.00788106, 0, 0
    12, 3.95989e-05, 0.0057052, 0, 0
    13, 3.01426e-05, 0.00413719, 0, 0
    14, 2.35484e-05, 0.00300224, 0, 0
    15, 1.85922e-05, 0.00218811, 0, 0
    16, 1.48509e-05, 0.00159282, 0, 0
    17, 1.19584e-05, 0.00116187, 0, 0
    18, 9.73362e-06, 0.000847954, 0, 0
    19, 7.99564e-06, 0.000619535, 0, 0
    20, 6.62841e-06, 0.000451673, 0, 0
    21, 5.53e-06, 0.000333487, 0, 0
    22, 4.66336e-06, 0.000241732, 0, 0
    23, 3.94249e-06, 0.000178884, 0, 0
    24, 3.37656e-06, 0.000130402, 0, 0
    25, 2.89578e-06, 9.55041e-05, 0, 0
    26, 2.50761e-06, 7.05809e-05, 0, 0
    27, 2.18541e-06, 5.16663e-05, 0, 0
    28, 1.91076e-06, 3.81187e-05, 0, 0
    29, 1.67648e-06, 2.78655e-05, 0, 0
    30, 1.47446e-06, 2.06697e-05, 0, 0
    31, 1.30079e-06, 1.51937e-05, 0, 0
    32, 1.16883e-06, 1.88743e-05, 0, 0
    33, 1.02437e-06, 5.13799e-06, 0, 0
    34, 9.14158e-07, 1.17301e-05, 0, 0
    35, 8.11021e-07, 3.13524e-06, 0, 0
    36, 7.17323e-07, 7.02808e-06, 0, 0
    37, 6.4145e-07, 7.67238e-06, 0, 0
    38, 5.70279e-07, 2.25684e-06, 0, 0
    39, 5.04812e-07, 5.61312e-06, 0, 0
    Both residuals have converged
    40, 4.49091e-07, 8.73538e-07, 0, 0

Max sigmaEq (von Mises stress) = 1.95162e+08
ExecutionTime = 0.73 s  ClockTime = 1 s

Time = 90

Evolving solid solver
Solving the total Lagrangian form of the momentum equation for D
    Corr, res, relRes, matRes, iters
    1, 0.00123191, 0.474719, 0, 0
    2, 0.000951748, 0.260135, 0, 0
    3, 0.00062742, 0.157751, 0, 0
    4, 0.000469712, 0.103287, 0, 0
    5, 0.000341423, 0.0718948, 0, 0
    6, 0.000251787, 0.0509395, 0, 0
    7, 0.000183476, 0.03697, 0, 0
    8, 0.000139661, 0.0270768, 0, 0
    9, 0.0001061, 0.0200892, 0, 0
    10, 8.18766e-05, 0.0149675, 0, 0
    11, 6.27499e-05, 0.0112168, 0, 0
    12, 4.85274e-05, 0.00841666, 0, 0
    13, 3.76726e-05, 0.00633573, 0, 0
    14, 2.96265e-05, 0.00477622, 0, 0
    15, 2.34267e-05, 0.00360844, 0, 0
    16, 1.86657e-05, 0.00272887, 0, 0
    17, 1.49447e-05, 0.00206823, 0, 0
    18, 1.2066e-05, 0.00156554, 0, 0
    19, 9.77477e-06, 0.00118662, 0, 0
    20, 7.97898e-06, 0.000899208, 0, 0
    21, 6.54692e-06, 0.000682015, 0, 0
    22, 5.40992e-06, 0.000517445, 0, 0
    23, 4.47406e-06, 0.00039215, 0, 0
    24, 3.73934e-06, 0.000299655, 0, 0
    25, 3.16244e-06, 0.000225945, 0, 0
    26, 2.6694e-06, 0.000171705, 0, 0
    27, 2.28168e-06, 0.000130565, 0, 0
    28, 1.95964e-06, 9.95772e-05, 0, 0
    29, 1.69742e-06, 7.54559e-05, 0, 0
    30, 1.47552e-06, 5.78694e-05, 0, 0
    31, 1.29199e-06, 4.35311e-05, 0, 0
    32, 1.12743e-06, 3.31716e-05, 0, 0
    33, 9.89904e-07, 2.52552e-05, 0, 0
    34, 8.68907e-07, 1.93902e-05, 0, 0
    35, 7.67745e-07, 1.46758e-05, 0, 0
    36, 6.78996e-07, 1.1025e-05, 0, 0
    37, 6.00656e-07, 8.6275e-06, 0, 0
    38, 5.33527e-07, 2.62623e-06, 0, 0
    39, 4.74645e-07, 7.3191e-06, 0, 0
    40, 4.2547e-07, 1.89239e-06, 0, 0
    41, 3.79782e-07, 5.38651e-06, 0, 0
    Both residuals have converged
    42, 3.35398e-07, 8.98447e-07, 0, 0

Max sigmaEq (von Mises stress) = 2.3011e+08
ExecutionTime = 0.82 s  ClockTime = 1 s

Time = 100

Evolving solid solver
Solving the total Lagrangian form of the momentum equation for D
    Corr, res, relRes, matRes, iters
    1, 0.00110014, 0.505163, 0, 0
    2, 0.000914663, 0.27217, 0, 0
    3, 0.000594407, 0.170801, 0, 0
    4, 0.000489246, 0.114439, 0, 0
    5, 0.000358978, 0.0828747, 0, 0
    6, 0.000279991, 0.0601798, 0, 0
    7, 0.000208003, 0.0452532, 0, 0
    8, 0.000165701, 0.0341458, 0, 0
    9, 0.000128566, 0.0262426, 0, 0
    10, 0.00010251, 0.0201889, 0, 0
    11, 8.02552e-05, 0.015695, 0, 0
    12, 6.37803e-05, 0.0121988, 0, 0
    13, 5.03216e-05, 0.00953437, 0, 0
    14, 4.01407e-05, 0.00745614, 0, 0
    15, 3.19936e-05, 0.00585437, 0, 0
    16, 2.56404e-05, 0.00459559, 0, 0
    17, 2.0512e-05, 0.00361558, 0, 0
    18, 1.65082e-05, 0.00284706, 0, 0
    19, 1.3322e-05, 0.0022441, 0, 0
    20, 1.08078e-05, 0.00176848, 0, 0
    21, 8.80376e-06, 0.00139433, 0, 0
    22, 7.21053e-06, 0.00109979, 0, 0
    23, 5.9431e-06, 0.000867755, 0, 0
    24, 4.92953e-06, 0.000684141, 0, 0
    25, 4.08546e-06, 0.000540157, 0, 0
    26, 3.40466e-06, 0.000426534, 0, 0
    27, 2.85286e-06, 0.000336906, 0, 0
    28, 2.39943e-06, 0.000265888, 0, 0
    29, 2.03097e-06, 0.000210089, 0, 0
    30, 1.72441e-06, 0.000165792, 0, 0
    31, 1.47429e-06, 0.00013111, 0, 0
    32, 1.26262e-06, 0.000103664, 0, 0
    33, 1.08916e-06, 8.17858e-05, 0, 0
    34, 9.39095e-07, 6.50795e-05, 0, 0
    35, 8.20001e-07, 5.09614e-05, 0, 0
    36, 7.10235e-07, 4.06483e-05, 0, 0
    37, 6.24515e-07, 3.18656e-05, 0, 0
    38, 5.45629e-07, 2.52506e-05, 0, 0
    39, 4.80248e-07, 1.99338e-05, 0, 0
    40, 4.20293e-07, 1.58418e-05, 0, 0
    41, 3.70824e-07, 1.24392e-05, 0, 0
    42, 3.27162e-07, 9.92601e-06, 0, 0
    43, 2.8963e-07, 7.796e-06, 0, 0
    44, 2.55044e-07, 6.23204e-06, 0, 0
    45, 2.26174e-07, 4.80136e-06, 0, 0
    46, 1.99929e-07, 3.96369e-06, 0, 0
    47, 1.78947e-07, 3.04584e-06, 0, 0
    48, 1.58213e-07, 2.46866e-06, 0, 0
    49, 1.4164e-07, 1.8449e-06, 0, 0
    50, 1.25114e-07, 1.63041e-06, 0, 0
    51, 1.12933e-07, 1.99449e-06, 0, 0
    Both residuals have converged
    52, 1.00279e-07, 5.22393e-07, 0, 0

Max sigmaEq (von Mises stress) = 2.70102e+08
ExecutionTime = 0.92 s  ClockTime = 1 s

The momentum equation converged in all time-steps


End

